/*--------------------------------*- C++ -*----------------------------------*\
| =========                 |                                                 |
| \\      /  F ield         | foam-extend: Open Source CFD                    |
|  \\    /   O peration     | Version:     4.1                                |
|   \\  /    A nd           | Web:         http://www.foam-extend.org         |
|    \\/     M anipulation  |                                                 |
\*---------------------------------------------------------------------------*/
FoamFile
{
    version     2.0;
    format      binary;
    class       polyBoundaryMesh;
    location    "constant/polyMesh";
    object      boundary;
}
// * * * * * * * * * * * * * * * * * * * * * * * * * * * * * * * * * * * * * //

3
(
    sideWall
    {
        type            wall;
        nFaces          304;
        startFace       10600;
    }
    oldInternalFaces
    {
        type            patch;
        nFaces          5376;
        startFace       10904;
    }
    triangulatedFaces
    {
        type            patch;
        nFaces          21504;
        startFace       16280;
    }
)


// ************************************************************************* //
