/*--------------------------------*- C++ -*----------------------------------*\
| =========                 |                                                 |
| \\      /  F ield         | foam-extend: Open Source CFD                    |
|  \\    /   O peration     | Version:     4.0                                |
|   \\  /    A nd           | Web:         http://www.extend-project.de       |
|    \\/     M anipulation  | For copyright notice see file Copyright         |
\*---------------------------------------------------------------------------*/
FoamFile
{
    version     2.0;
    format      ascii;
    class       featureEdgeMesh;
    object      coil4;
}
// * * * * * * * * * * * * * * * * * * * * * * * * * * * * * * * * * * * * * //

// points:

1440
(
    (-0.0841986860099 -0.245836526136 0.195)
    (-0.0843302547615 -0.245760564734 0.196736481777)
    (-0.0847209633663 -0.245534988579 0.198420201433)
    (-0.0853589403412 -0.245166651688 0.2)
    (-0.0862248010786 -0.24466674579 0.201427876097)
    (-0.0872922368381 -0.244050460273 0.202660444431)
    (-0.0885288141243 -0.243336520661 0.203660254038)
    (-0.089896960162 -0.242546619648 0.204396926208)
    (-0.0913551045264 -0.241704757977 0.20484807753)
    (-0.0928589422387 -0.240836515187 0.205)
    (-0.162140992069 -0.200836427597 0.205)
    (-0.163644829781 -0.199968184808 0.20484807753)
    (-0.165102974146 -0.199126323136 0.204396926208)
    (-0.166471120184 -0.198336422123 0.203660254038)
    (-0.16770769747 -0.197622482511 0.202660444431)
    (-0.168775133229 -0.197006196995 0.201427876097)
    (-0.169640993967 -0.196506291097 0.2)
    (-0.170278970941 -0.196137954205 0.198420201433)
    (-0.170669679546 -0.19591237805 0.196736481777)
    (-0.170801248298 -0.195836416649 0.195)
    (-0.170801248298 -0.195836416649 -0.135)
    (-0.170669679546 -0.19591237805 -0.136736481777)
    (-0.170278970941 -0.196137954205 -0.138420201433)
    (-0.169640993967 -0.196506291097 -0.14)
    (-0.168775133229 -0.197006196995 -0.141427876097)
    (-0.16770769747 -0.197622482511 -0.142660444431)
    (-0.166471120184 -0.198336422123 -0.143660254038)
    (-0.165102974146 -0.199126323136 -0.144396926208)
    (-0.163644829781 -0.199968184808 -0.14484807753)
    (-0.162140992069 -0.200836427597 -0.145)
    (-0.0928589422387 -0.240836515187 -0.145)
    (-0.0913551045264 -0.241704757977 -0.14484807753)
    (-0.089896960162 -0.242546619648 -0.144396926208)
    (-0.0885288141243 -0.243336520661 -0.143660254038)
    (-0.0872922368381 -0.244050460273 -0.142660444431)
    (-0.0862248010786 -0.24466674579 -0.141427876097)
    (-0.0853589403412 -0.245166651688 -0.14)
    (-0.0847209633663 -0.245534988579 -0.138420201433)
    (-0.0843302547615 -0.245760564734 -0.136736481777)
    (-0.0841986860099 -0.245836526136 -0.135)
    (-0.0798685578955 -0.24833653161 0.195)
    (-0.0800659110229 -0.248222589508 0.197604722665)
    (-0.0806519739302 -0.247884225275 0.20013030215)
    (-0.0816089393925 -0.247331719938 0.2025)
    (-0.0829077304986 -0.246581861091 0.204641814145)
    (-0.0845088841378 -0.245657432816 0.206490666647)
    (-0.0863637500671 -0.244586523398 0.207990381057)
    (-0.0884159691237 -0.243401671879 0.209095389312)
    (-0.0906031856703 -0.242138879371 0.209772116295)
    (-0.0928589422387 -0.240836515187 0.21)
    (-0.162140992069 -0.200836427597 0.21)
    (-0.164396748638 -0.199534063413 0.209772116295)
    (-0.166583965184 -0.198271270905 0.209095389312)
    (-0.168636184241 -0.197086419386 0.207990381057)
    (-0.17049105017 -0.196015509968 0.206490666647)
    (-0.172092203809 -0.195091081693 0.204641814145)
    (-0.173390994915 -0.194341222846 0.2025)
    (-0.174347960378 -0.193788717509 0.20013030215)
    (-0.174934023285 -0.193450353276 0.197604722665)
    (-0.175131376412 -0.193336411174 0.195)
    (-0.175131376412 -0.193336411174 -0.135)
    (-0.174934023285 -0.193450353276 -0.137604722665)
    (-0.174347960378 -0.193788717509 -0.14013030215)
    (-0.173390994915 -0.194341222846 -0.1425)
    (-0.172092203809 -0.195091081693 -0.144641814145)
    (-0.17049105017 -0.196015509968 -0.146490666647)
    (-0.168636184241 -0.197086419386 -0.147990381057)
    (-0.166583965184 -0.198271270905 -0.149095389312)
    (-0.164396748638 -0.199534063413 -0.149772116295)
    (-0.162140992069 -0.200836427597 -0.15)
    (-0.0928589422387 -0.240836515187 -0.15)
    (-0.0906031856703 -0.242138879371 -0.149772116295)
    (-0.0884159691237 -0.243401671879 -0.149095389312)
    (-0.0863637500671 -0.244586523398 -0.147990381057)
    (-0.0845088841378 -0.245657432816 -0.146490666647)
    (-0.0829077304986 -0.246581861091 -0.144641814145)
    (-0.0816089393925 -0.247331719938 -0.1425)
    (-0.0806519739302 -0.247884225275 -0.14013030215)
    (-0.0800659110229 -0.248222589508 -0.137604722665)
    (-0.0798685578955 -0.24833653161 -0.135)
    (-0.075538429781 -0.250836537084 0.195)
    (-0.0758015672843 -0.250684614282 0.198472963553)
    (-0.076582984494 -0.250233461972 0.201840402867)
    (-0.0778589384438 -0.249496788189 0.205)
    (-0.0795906599185 -0.248496976393 0.207855752194)
    (-0.0817255314375 -0.247264405359 0.210320888862)
    (-0.0841986860099 -0.245836526136 0.212320508076)
    (-0.0869349780854 -0.24425672411 0.213793852416)
    (-0.0898512668141 -0.242573000766 0.21469615506)
    (-0.0928589422387 -0.240836515187 0.215)
    (-0.162140992069 -0.200836427597 0.215)
    (-0.165148667494 -0.199099942018 0.21469615506)
    (-0.168064956222 -0.197416218675 0.213793852416)
    (-0.170801248298 -0.195836416649 0.212320508076)
    (-0.17327440287 -0.194408537425 0.210320888862)
    (-0.175409274389 -0.193175966392 0.207855752194)
    (-0.177140995864 -0.192176154596 0.205)
    (-0.178416949814 -0.191439480813 0.201840402867)
    (-0.179198367024 -0.190988328502 0.198472963553)
    (-0.179461504527 -0.1908364057 0.195)
    (-0.179461504527 -0.1908364057 -0.135)
    (-0.179198367024 -0.190988328502 -0.138472963553)
    (-0.178416949814 -0.191439480813 -0.141840402867)
    (-0.177140995864 -0.192176154596 -0.145)
    (-0.175409274389 -0.193175966392 -0.147855752194)
    (-0.17327440287 -0.194408537425 -0.150320888862)
    (-0.170801248298 -0.195836416649 -0.152320508076)
    (-0.168064956222 -0.197416218675 -0.153793852416)
    (-0.165148667494 -0.199099942018 -0.15469615506)
    (-0.162140992069 -0.200836427597 -0.155)
    (-0.0928589422387 -0.240836515187 -0.155)
    (-0.0898512668141 -0.242573000766 -0.15469615506)
    (-0.0869349780854 -0.24425672411 -0.153793852416)
    (-0.0841986860099 -0.245836526136 -0.152320508076)
    (-0.0817255314375 -0.247264405359 -0.150320888862)
    (-0.0795906599185 -0.248496976393 -0.147855752194)
    (-0.0778589384438 -0.249496788189 -0.145)
    (-0.076582984494 -0.250233461972 -0.141840402867)
    (-0.0758015672843 -0.250684614282 -0.138472963553)
    (-0.075538429781 -0.250836537084 -0.135)
    (-0.0712083016666 -0.253336542559 0.195)
    (-0.0715372235457 -0.253146639056 0.199341204442)
    (-0.0725139950578 -0.252582698668 0.203550503583)
    (-0.0741089374951 -0.251661856439 0.2075)
    (-0.0762735893385 -0.250412091694 0.211069690242)
    (-0.0789421787372 -0.248871377902 0.214151111078)
    (-0.0820336219527 -0.247086528873 0.216650635095)
    (-0.0854539870471 -0.24511177634 0.21849231552)
    (-0.089099347958 -0.243007122161 0.219620193825)
    (-0.0928589422387 -0.240836515187 0.22)
    (-0.162140992069 -0.200836427597 0.22)
    (-0.16590058635 -0.198665820623 0.219620193825)
    (-0.169545947261 -0.196561166444 0.21849231552)
    (-0.172966312355 -0.194586413911 0.216650635095)
    (-0.176057755571 -0.192801564882 0.214151111078)
    (-0.178726344969 -0.19126085109 0.211069690242)
    (-0.180890996813 -0.190011086345 0.2075)
    (-0.18248593925 -0.189090244116 0.203550503583)
    (-0.183462710762 -0.188526303729 0.199341204442)
    (-0.183791632641 -0.188336400226 0.195)
    (-0.183791632641 -0.188336400226 -0.135)
    (-0.183462710762 -0.188526303729 -0.139341204442)
    (-0.18248593925 -0.189090244116 -0.143550503583)
    (-0.180890996813 -0.190011086345 -0.1475)
    (-0.178726344969 -0.19126085109 -0.151069690242)
    (-0.176057755571 -0.192801564882 -0.154151111078)
    (-0.172966312355 -0.194586413911 -0.156650635095)
    (-0.169545947261 -0.196561166444 -0.15849231552)
    (-0.16590058635 -0.198665820623 -0.159620193825)
    (-0.162140992069 -0.200836427597 -0.16)
    (-0.0928589422387 -0.240836515187 -0.16)
    (-0.089099347958 -0.243007122161 -0.159620193825)
    (-0.0854539870471 -0.24511177634 -0.15849231552)
    (-0.0820336219527 -0.247086528873 -0.156650635095)
    (-0.0789421787372 -0.248871377902 -0.154151111078)
    (-0.0762735893385 -0.250412091694 -0.151069690242)
    (-0.0741089374951 -0.251661856439 -0.1475)
    (-0.0725139950578 -0.252582698668 -0.143550503583)
    (-0.0715372235457 -0.253146639056 -0.139341204442)
    (-0.0712083016666 -0.253336542559 -0.135)
    (-0.0668781735522 -0.255836548033 0.195)
    (-0.0672728798071 -0.255608663829 0.20020944533)
    (-0.0684450056217 -0.254931935364 0.2052606043)
    (-0.0703589365464 -0.253826924689 0.21)
    (-0.0729565187585 -0.252327206995 0.214283628291)
    (-0.0761588260369 -0.250478350445 0.217981333294)
    (-0.0798685578955 -0.24833653161 0.220980762114)
    (-0.0839729960088 -0.245966828571 0.223190778624)
    (-0.0883474291019 -0.243441243556 0.22454423259)
    (-0.0928589422387 -0.240836515187 0.225)
    (-0.162140992069 -0.200836427597 0.225)
    (-0.166652505206 -0.198231699229 0.22454423259)
    (-0.171026938299 -0.195706114213 0.223190778624)
    (-0.175131376412 -0.193336411174 0.220980762114)
    (-0.178841108271 -0.191194592339 0.217981333294)
    (-0.182043415549 -0.189345735789 0.214283628291)
    (-0.184640997761 -0.187846018095 0.21)
    (-0.186554928686 -0.18674100742 0.2052606043)
    (-0.187727054501 -0.186064278955 0.20020944533)
    (-0.188121760756 -0.185836394751 0.195)
    (-0.188121760756 -0.185836394751 -0.135)
    (-0.187727054501 -0.186064278955 -0.14020944533)
    (-0.186554928686 -0.18674100742 -0.1452606043)
    (-0.184640997761 -0.187846018095 -0.15)
    (-0.182043415549 -0.189345735789 -0.154283628291)
    (-0.178841108271 -0.191194592339 -0.157981333294)
    (-0.175131376412 -0.193336411174 -0.160980762114)
    (-0.171026938299 -0.195706114213 -0.163190778624)
    (-0.166652505206 -0.198231699229 -0.16454423259)
    (-0.162140992069 -0.200836427597 -0.165)
    (-0.0928589422387 -0.240836515187 -0.165)
    (-0.0883474291019 -0.243441243556 -0.16454423259)
    (-0.0839729960088 -0.245966828571 -0.163190778624)
    (-0.0798685578955 -0.24833653161 -0.160980762114)
    (-0.0761588260369 -0.250478350445 -0.157981333294)
    (-0.0729565187585 -0.252327206995 -0.154283628291)
    (-0.0703589365464 -0.253826924689 -0.15)
    (-0.0684450056217 -0.254931935364 -0.1452606043)
    (-0.0672728798071 -0.255608663829 -0.14020944533)
    (-0.0668781735522 -0.255836548033 -0.135)
    (-0.0625480454378 -0.258336553507 0.195)
    (-0.0630085360685 -0.258070688603 0.201077686218)
    (-0.0643760161855 -0.25728117206 0.206970705016)
    (-0.0666089355977 -0.25599199294 0.2125)
    (-0.0696394481784 -0.254242322297 0.217497566339)
    (-0.0733754733366 -0.252085322988 0.221811555509)
    (-0.0777034938383 -0.249586534347 0.225310889132)
    (-0.0824920049705 -0.246821880802 0.227889241728)
    (-0.0875955102457 -0.24387536495 0.229468271355)
    (-0.0928589422387 -0.240836515187 0.23)
    (-0.162140992069 -0.200836427597 0.23)
    (-0.167404424062 -0.197797577834 0.229468271355)
    (-0.172507929337 -0.194851061983 0.227889241728)
    (-0.17729644047 -0.192086408437 0.225310889132)
    (-0.181624460971 -0.189587619796 0.221811555509)
    (-0.185360486129 -0.187430620488 0.217497566339)
    (-0.18839099871 -0.185680949845 0.2125)
    (-0.190623918122 -0.184391770724 0.206970705016)
    (-0.191991398239 -0.183602254181 0.201077686218)
    (-0.19245188887 -0.183336389277 0.195)
    (-0.19245188887 -0.183336389277 -0.135)
    (-0.191991398239 -0.183602254181 -0.141077686218)
    (-0.190623918122 -0.184391770724 -0.146970705016)
    (-0.18839099871 -0.185680949845 -0.1525)
    (-0.185360486129 -0.187430620488 -0.157497566339)
    (-0.181624460971 -0.189587619796 -0.161811555509)
    (-0.17729644047 -0.192086408437 -0.165310889132)
    (-0.172507929337 -0.194851061983 -0.167889241728)
    (-0.167404424062 -0.197797577834 -0.169468271355)
    (-0.162140992069 -0.200836427597 -0.17)
    (-0.0928589422387 -0.240836515187 -0.17)
    (-0.0875955102457 -0.24387536495 -0.169468271355)
    (-0.0824920049705 -0.246821880802 -0.167889241728)
    (-0.0777034938382 -0.249586534347 -0.165310889132)
    (-0.0733754733366 -0.252085322988 -0.161811555509)
    (-0.0696394481784 -0.254242322297 -0.157497566339)
    (-0.0666089355977 -0.25599199294 -0.1525)
    (-0.0643760161855 -0.25728117206 -0.146970705016)
    (-0.0630085360685 -0.258070688603 -0.141077686218)
    (-0.0625480454378 -0.258336553507 -0.135)
    (-0.0582179173234 -0.260836558982 0.195)
    (-0.0587441923299 -0.260532713377 0.201945927107)
    (-0.0603070267494 -0.259630408756 0.208680805733)
    (-0.0628589346489 -0.25815706119 0.215)
    (-0.0663223775984 -0.256157437598 0.220711504387)
    (-0.0705921206363 -0.253692295531 0.225641777725)
    (-0.075538429781 -0.250836537084 0.229641016151)
    (-0.0810110139322 -0.247676933032 0.232587704831)
    (-0.0868435913896 -0.244309486345 0.23439231012)
    (-0.0928589422387 -0.240836515187 0.235)
    (-0.162140992069 -0.200836427597 0.235)
    (-0.168156342918 -0.197363456439 0.23439231012)
    (-0.173988920376 -0.193996009752 0.232587704831)
    (-0.179461504527 -0.1908364057 0.229641016151)
    (-0.184407813671 -0.187980647253 0.225641777725)
    (-0.188677556709 -0.185515505186 0.220711504387)
    (-0.192140999659 -0.183515881594 0.215)
    (-0.194692907558 -0.182042534028 0.208680805733)
    (-0.196255741978 -0.181140229408 0.201945927107)
    (-0.196782016984 -0.180836383803 0.195)
    (-0.196782016984 -0.180836383803 -0.135)
    (-0.196255741978 -0.181140229408 -0.141945927107)
    (-0.194692907558 -0.182042534028 -0.148680805733)
    (-0.192140999659 -0.183515881594 -0.155)
    (-0.188677556709 -0.185515505186 -0.160711504387)
    (-0.184407813671 -0.187980647253 -0.165641777725)
    (-0.179461504527 -0.1908364057 -0.169641016151)
    (-0.173988920376 -0.193996009752 -0.172587704831)
    (-0.168156342918 -0.197363456439 -0.17439231012)
    (-0.162140992069 -0.200836427597 -0.175)
    (-0.0928589422387 -0.240836515187 -0.175)
    (-0.0868435913896 -0.244309486345 -0.17439231012)
    (-0.0810110139322 -0.247676933032 -0.172587704831)
    (-0.075538429781 -0.250836537084 -0.169641016151)
    (-0.0705921206363 -0.253692295531 -0.165641777725)
    (-0.0663223775984 -0.256157437598 -0.160711504387)
    (-0.0628589346489 -0.25815706119 -0.155)
    (-0.0603070267494 -0.259630408756 -0.148680805733)
    (-0.0587441923299 -0.260532713377 -0.141945927107)
    (-0.0582179173234 -0.260836558982 -0.135)
    (-0.053887789209 -0.263336564456 0.195)
    (-0.0544798485913 -0.26299473815 0.202814167995)
    (-0.0562380373132 -0.261979645453 0.21039090645)
    (-0.0591089337002 -0.26032212944 0.2175)
    (-0.0630053070184 -0.2580725529 0.223925442436)
    (-0.067808767936 -0.255299268075 0.22947199994)
    (-0.0733733657238 -0.252086539822 0.23397114317)
    (-0.0795300228939 -0.248531985263 0.237286167935)
    (-0.0860916725335 -0.24474360774 0.239316348886)
    (-0.0928589422387 -0.240836515187 0.24)
    (-0.162140992069 -0.200836427597 0.24)
    (-0.168908261774 -0.196929335044 0.239316348886)
    (-0.175469911414 -0.193140957521 0.237286167935)
    (-0.181626568584 -0.189586402963 0.23397114317)
    (-0.187191166372 -0.18637367471 0.22947199994)
    (-0.191994627289 -0.183600389885 0.223925442436)
    (-0.195891000608 -0.181350813344 0.2175)
    (-0.198761896995 -0.179693297332 0.21039090645)
    (-0.200520085717 -0.178678204634 0.202814167995)
    (-0.201112145099 -0.178336378328 0.195)
    (-0.201112145099 -0.178336378328 -0.135)
    (-0.200520085717 -0.178678204634 -0.142814167995)
    (-0.198761896995 -0.179693297332 -0.15039090645)
    (-0.195891000608 -0.181350813344 -0.1575)
    (-0.191994627289 -0.183600389885 -0.163925442436)
    (-0.187191166372 -0.18637367471 -0.16947199994)
    (-0.181626568584 -0.189586402963 -0.17397114317)
    (-0.175469911414 -0.193140957521 -0.177286167935)
    (-0.168908261774 -0.196929335044 -0.179316348886)
    (-0.162140992069 -0.200836427597 -0.18)
    (-0.0928589422387 -0.240836515187 -0.18)
    (-0.0860916725335 -0.24474360774 -0.179316348886)
    (-0.0795300228939 -0.248531985263 -0.177286167935)
    (-0.0733733657238 -0.252086539822 -0.17397114317)
    (-0.067808767936 -0.255299268075 -0.16947199994)
    (-0.0630053070184 -0.2580725529 -0.163925442436)
    (-0.0591089337002 -0.26032212944 -0.1575)
    (-0.0562380373132 -0.261979645453 -0.15039090645)
    (-0.0544798485913 -0.26299473815 -0.142814167995)
    (-0.053887789209 -0.263336564456 -0.135)
    (-0.0495576610946 -0.26583656993 0.195)
    (-0.0502155048527 -0.265456762924 0.203682408883)
    (-0.052169047877 -0.264328882149 0.212101007166)
    (-0.0553589327515 -0.262487197691 0.22)
    (-0.0596882364383 -0.259987668201 0.227139380484)
    (-0.0650254152357 -0.256906240618 0.233302222156)
    (-0.0712083016666 -0.253336542559 0.238301270189)
    (-0.0780490318556 -0.249387037493 0.241984631039)
    (-0.0853397536774 -0.245177729135 0.244240387651)
    (-0.0928589422387 -0.240836515187 0.245)
    (-0.162140992069 -0.200836427597 0.245)
    (-0.16966018063 -0.19649521365 0.244240387651)
    (-0.176950902452 -0.192285905291 0.241984631039)
    (-0.183791632641 -0.188336400226 0.238301270189)
    (-0.189974519072 -0.184766702167 0.233302222156)
    (-0.195311697869 -0.181685274583 0.227139380484)
    (-0.199641001556 -0.179185745093 0.22)
    (-0.202830886431 -0.177344060636 0.212101007166)
    (-0.204784429455 -0.17621617986 0.203682408883)
    (-0.205442273213 -0.175836372854 0.195)
    (-0.205442273213 -0.175836372854 -0.135)
    (-0.204784429455 -0.17621617986 -0.143682408883)
    (-0.202830886431 -0.177344060636 -0.152101007166)
    (-0.199641001556 -0.179185745093 -0.16)
    (-0.195311697869 -0.181685274583 -0.167139380484)
    (-0.189974519072 -0.184766702167 -0.173302222156)
    (-0.183791632641 -0.188336400226 -0.178301270189)
    (-0.176950902452 -0.192285905291 -0.181984631039)
    (-0.16966018063 -0.19649521365 -0.184240387651)
    (-0.162140992069 -0.200836427597 -0.185)
    (-0.0928589422387 -0.240836515187 -0.185)
    (-0.0853397536774 -0.245177729135 -0.184240387651)
    (-0.0780490318556 -0.249387037493 -0.181984631039)
    (-0.0712083016666 -0.253336542559 -0.178301270189)
    (-0.0650254152357 -0.256906240618 -0.173302222156)
    (-0.0596882364383 -0.259987668201 -0.167139380484)
    (-0.0553589327515 -0.262487197691 -0.16)
    (-0.052169047877 -0.264328882149 -0.152101007166)
    (-0.0502155048527 -0.265456762924 -0.143682408883)
    (-0.0495576610946 -0.26583656993 -0.135)
    (-0.0452275329802 -0.268336575405 0.195)
    (-0.0459511611141 -0.267918787698 0.204550649772)
    (-0.0481000584409 -0.266678118845 0.213811107883)
    (-0.0516089318028 -0.264652265941 0.2225)
    (-0.0563711658583 -0.261902783502 0.230353318533)
    (-0.0622420625354 -0.258513213161 0.237132444372)
    (-0.0690432376094 -0.254586545296 0.242631397208)
    (-0.0765680408173 -0.250242089724 0.246683094143)
    (-0.0845878348212 -0.24561185053 0.249164426416)
    (-0.0928589422387 -0.240836515187 0.25)
    (-0.162140992069 -0.200836427597 0.25)
    (-0.170412099487 -0.196061092255 0.249164426416)
    (-0.17843189349 -0.19143085306 0.246683094143)
    (-0.185956696698 -0.187086397488 0.242631397208)
    (-0.192757871772 -0.183159729624 0.237132444372)
    (-0.198628768449 -0.179770159282 0.230353318533)
    (-0.203391002505 -0.177020676843 0.2225)
    (-0.206899875867 -0.174994823939 0.213811107883)
    (-0.209048773194 -0.173754155086 0.204550649772)
    (-0.209772401328 -0.173336367379 0.195)
    (-0.209772401328 -0.173336367379 -0.135)
    (-0.209048773194 -0.173754155086 -0.144550649772)
    (-0.206899875867 -0.174994823939 -0.153811107883)
    (-0.203391002505 -0.177020676843 -0.1625)
    (-0.198628768449 -0.179770159282 -0.170353318533)
    (-0.192757871772 -0.183159729624 -0.177132444372)
    (-0.185956696698 -0.187086397488 -0.182631397208)
    (-0.17843189349 -0.19143085306 -0.186683094143)
    (-0.170412099487 -0.196061092255 -0.189164426416)
    (-0.162140992069 -0.200836427597 -0.19)
    (-0.0928589422387 -0.240836515187 -0.19)
    (-0.0845878348212 -0.24561185053 -0.189164426416)
    (-0.0765680408173 -0.250242089724 -0.186683094143)
    (-0.0690432376094 -0.254586545296 -0.182631397208)
    (-0.0622420625354 -0.258513213161 -0.177132444372)
    (-0.0563711658583 -0.261902783502 -0.170353318533)
    (-0.0516089318028 -0.264652265941 -0.1625)
    (-0.0481000584409 -0.266678118845 -0.153811107883)
    (-0.0459511611141 -0.267918787698 -0.144550649772)
    (-0.0452275329802 -0.268336575405 -0.135)
    (-0.0485608736127 -0.274110079557 0.195)
    (-0.0492845017465 -0.27369229185 0.204550649772)
    (-0.0514333990733 -0.272451622997 0.213811107883)
    (-0.0549422724353 -0.270425770094 0.2225)
    (-0.0597045064908 -0.267676287655 0.230353318533)
    (-0.0655754031679 -0.264286717313 0.237132444372)
    (-0.0723765782419 -0.260360049448 0.242631397208)
    (-0.0799013814498 -0.256015593877 0.246683094143)
    (-0.0879211754537 -0.251385354682 0.249164426416)
    (-0.0961922828711 -0.246610019339 0.25)
    (-0.165474332702 -0.20660993175 0.25)
    (-0.173745440119 -0.201834596407 0.249164426416)
    (-0.181765234123 -0.197204357213 0.246683094143)
    (-0.189290037331 -0.192859901641 0.242631397208)
    (-0.196091212405 -0.188933233776 0.237132444372)
    (-0.201962109082 -0.185543663435 0.230353318533)
    (-0.206724343137 -0.182794180996 0.2225)
    (-0.210233216499 -0.180768328092 0.213811107883)
    (-0.212382113826 -0.179527659239 0.204550649772)
    (-0.21310574196 -0.179109871532 0.195)
    (-0.21310574196 -0.179109871532 -0.135)
    (-0.212382113826 -0.179527659239 -0.144550649772)
    (-0.210233216499 -0.180768328092 -0.153811107883)
    (-0.206724343137 -0.182794180996 -0.1625)
    (-0.201962109082 -0.185543663435 -0.170353318533)
    (-0.196091212405 -0.188933233776 -0.177132444372)
    (-0.189290037331 -0.192859901641 -0.182631397208)
    (-0.181765234123 -0.197204357213 -0.186683094143)
    (-0.173745440119 -0.201834596407 -0.189164426416)
    (-0.165474332702 -0.20660993175 -0.19)
    (-0.0961922828711 -0.246610019339 -0.19)
    (-0.0879211754537 -0.251385354682 -0.189164426416)
    (-0.0799013814498 -0.256015593877 -0.186683094143)
    (-0.0723765782419 -0.260360049448 -0.182631397208)
    (-0.0655754031679 -0.264286717313 -0.177132444372)
    (-0.0597045064908 -0.267676287655 -0.170353318533)
    (-0.0549422724353 -0.270425770094 -0.1625)
    (-0.0514333990733 -0.272451622997 -0.153811107883)
    (-0.0492845017465 -0.27369229185 -0.144550649772)
    (-0.0485608736127 -0.274110079557 -0.135)
    (-0.0518942142452 -0.27988358371 0.195)
    (-0.052617842379 -0.279465796003 0.204550649772)
    (-0.0547667397058 -0.27822512715 0.213811107883)
    (-0.0582756130677 -0.276199274246 0.2225)
    (-0.0630378471232 -0.273449791807 0.230353318533)
    (-0.0689087438004 -0.270060221466 0.237132444372)
    (-0.0757099188744 -0.266133553601 0.242631397208)
    (-0.0832347220822 -0.261789098029 0.246683094143)
    (-0.0912545160862 -0.257158858835 0.249164426416)
    (-0.0995256235036 -0.252383523492 0.25)
    (-0.168807673334 -0.212383435902 0.25)
    (-0.177078780751 -0.20760810056 0.249164426416)
    (-0.185098574755 -0.202977861365 0.246683094143)
    (-0.192623377963 -0.198633405793 0.242631397208)
    (-0.199424553037 -0.194706737929 0.237132444372)
    (-0.205295449714 -0.191317167587 0.230353318533)
    (-0.21005768377 -0.188567685148 0.2225)
    (-0.213566557132 -0.186541832245 0.213811107883)
    (-0.215715454459 -0.185301163392 0.204550649772)
    (-0.216439082592 -0.184883375685 0.195)
    (-0.216439082592 -0.184883375685 -0.135)
    (-0.215715454459 -0.185301163392 -0.144550649772)
    (-0.213566557132 -0.186541832245 -0.153811107883)
    (-0.21005768377 -0.188567685148 -0.1625)
    (-0.205295449714 -0.191317167587 -0.170353318533)
    (-0.199424553037 -0.194706737929 -0.177132444372)
    (-0.192623377963 -0.198633405793 -0.182631397208)
    (-0.185098574755 -0.202977861365 -0.186683094143)
    (-0.177078780751 -0.20760810056 -0.189164426416)
    (-0.168807673334 -0.212383435902 -0.19)
    (-0.0995256235036 -0.252383523492 -0.19)
    (-0.0912545160862 -0.257158858835 -0.189164426416)
    (-0.0832347220822 -0.261789098029 -0.186683094143)
    (-0.0757099188744 -0.266133553601 -0.182631397208)
    (-0.0689087438004 -0.270060221466 -0.177132444372)
    (-0.0630378471232 -0.273449791807 -0.170353318533)
    (-0.0582756130677 -0.276199274246 -0.1625)
    (-0.0547667397058 -0.27822512715 -0.153811107883)
    (-0.052617842379 -0.279465796003 -0.144550649772)
    (-0.0518942142452 -0.27988358371 -0.135)
    (-0.0552275548776 -0.285657087862 0.195)
    (-0.0559511830115 -0.285239300155 0.204550649772)
    (-0.0581000803383 -0.283998631302 0.213811107883)
    (-0.0616089537002 -0.281972778399 0.2225)
    (-0.0663711877557 -0.27922329596 0.230353318533)
    (-0.0722420844328 -0.275833725618 0.237132444372)
    (-0.0790432595069 -0.271907057754 0.242631397208)
    (-0.0865680627147 -0.267562602182 0.246683094143)
    (-0.0945878567186 -0.262932362987 0.249164426416)
    (-0.102858964136 -0.258157027645 0.25)
    (-0.172141013967 -0.218156940055 0.25)
    (-0.180412121384 -0.213381604712 0.249164426416)
    (-0.188431915388 -0.208751365518 0.246683094143)
    (-0.195956718596 -0.204406909946 0.242631397208)
    (-0.20275789367 -0.200480242081 0.237132444372)
    (-0.208628790347 -0.19709067174 0.230353318533)
    (-0.213391024402 -0.194341189301 0.2225)
    (-0.216899897764 -0.192315336397 0.213811107883)
    (-0.219048795091 -0.191074667544 0.204550649772)
    (-0.219772423225 -0.190656879837 0.195)
    (-0.219772423225 -0.190656879837 -0.135)
    (-0.219048795091 -0.191074667544 -0.144550649772)
    (-0.216899897764 -0.192315336397 -0.153811107883)
    (-0.213391024402 -0.194341189301 -0.1625)
    (-0.208628790347 -0.19709067174 -0.170353318533)
    (-0.20275789367 -0.200480242081 -0.177132444372)
    (-0.195956718596 -0.204406909946 -0.182631397208)
    (-0.188431915388 -0.208751365518 -0.186683094143)
    (-0.180412121384 -0.213381604712 -0.189164426416)
    (-0.172141013967 -0.218156940055 -0.19)
    (-0.102858964136 -0.258157027645 -0.19)
    (-0.0945878567186 -0.262932362987 -0.189164426416)
    (-0.0865680627147 -0.267562602182 -0.186683094143)
    (-0.0790432595069 -0.271907057754 -0.182631397208)
    (-0.0722420844328 -0.275833725618 -0.177132444372)
    (-0.0663711877557 -0.27922329596 -0.170353318533)
    (-0.0616089537002 -0.281972778399 -0.1625)
    (-0.0581000803383 -0.283998631302 -0.153811107883)
    (-0.0559511830115 -0.285239300155 -0.144550649772)
    (-0.0552275548776 -0.285657087862 -0.135)
    (-0.0585608955101 -0.291430592015 0.195)
    (-0.0592845236439 -0.291012804308 0.204550649772)
    (-0.0614334209708 -0.289772135455 0.213811107883)
    (-0.0649422943327 -0.287746282551 0.2225)
    (-0.0697045283882 -0.284996800112 0.230353318533)
    (-0.0755754250653 -0.281607229771 0.237132444372)
    (-0.0823766001393 -0.277680561906 0.242631397208)
    (-0.0899014033472 -0.273336106334 0.246683094143)
    (-0.0979211973511 -0.26870586714 0.249164426416)
    (-0.106192304769 -0.263930531797 0.25)
    (-0.175474354599 -0.223930444207 0.25)
    (-0.183745462016 -0.219155108865 0.249164426416)
    (-0.19176525602 -0.21452486967 0.246683094143)
    (-0.199290059228 -0.210180414099 0.242631397208)
    (-0.206091234302 -0.206253746234 0.237132444372)
    (-0.211962130979 -0.202864175892 0.230353318533)
    (-0.216724365035 -0.200114693453 0.2225)
    (-0.220233238397 -0.19808884055 0.213811107883)
    (-0.222382135724 -0.196848171697 0.204550649772)
    (-0.223105763857 -0.19643038399 0.195)
    (-0.223105763857 -0.19643038399 -0.135)
    (-0.222382135724 -0.196848171697 -0.144550649772)
    (-0.220233238397 -0.19808884055 -0.153811107883)
    (-0.216724365035 -0.200114693453 -0.1625)
    (-0.211962130979 -0.202864175892 -0.170353318533)
    (-0.206091234302 -0.206253746234 -0.177132444372)
    (-0.199290059228 -0.210180414099 -0.182631397208)
    (-0.19176525602 -0.21452486967 -0.186683094143)
    (-0.183745462016 -0.219155108865 -0.189164426416)
    (-0.175474354599 -0.223930444207 -0.19)
    (-0.106192304769 -0.263930531797 -0.19)
    (-0.0979211973511 -0.26870586714 -0.189164426416)
    (-0.0899014033472 -0.273336106334 -0.186683094143)
    (-0.0823766001393 -0.277680561906 -0.182631397208)
    (-0.0755754250653 -0.281607229771 -0.177132444372)
    (-0.0697045283882 -0.284996800112 -0.170353318533)
    (-0.0649422943327 -0.287746282551 -0.1625)
    (-0.0614334209708 -0.289772135455 -0.153811107883)
    (-0.0592845236439 -0.291012804308 -0.144550649772)
    (-0.0585608955101 -0.291430592015 -0.135)
    (-0.0618942361426 -0.297204096168 0.195)
    (-0.0626178642764 -0.296786308461 0.204550649772)
    (-0.0647667616032 -0.295545639608 0.213811107883)
    (-0.0682756349651 -0.293519786704 0.2225)
    (-0.0730378690207 -0.290770304265 0.230353318533)
    (-0.0789087656978 -0.287380733923 0.237132444372)
    (-0.0857099407718 -0.283454066059 0.242631397208)
    (-0.0932347439796 -0.279109610487 0.246683094143)
    (-0.101254537984 -0.274479371292 0.249164426416)
    (-0.109525645401 -0.26970403595 0.25)
    (-0.178807695231 -0.22970394836 0.25)
    (-0.187078802649 -0.224928613017 0.249164426416)
    (-0.195098596653 -0.220298373823 0.246683094143)