/*--------------------------------*- C++ -*----------------------------------*\
| =========                 |                                                 |
| \\      /  F ield         | foam-extend: Open Source CFD                    |
|  \\    /   O peration     | Version:     4.0                                |
|   \\  /    A nd           | Web:         http://www.extend-project.de       |
|    \\/     M anipulation  | For copyright notice see file Copyright         |
\*---------------------------------------------------------------------------*/
FoamFile
{
    version     2.0;
    format      ascii;
    class       featureEdgeMesh;
    object      coil5;
}
// * * * * * * * * * * * * * * * * * * * * * * * * * * * * * * * * * * * * * //

// points:

1440
(
    (0.170805226295 -0.195840429764 0.195)
    (0.170673654036 -0.195916376867 0.196736481777)
    (0.170282935014 -0.196141910561 0.198420201433)
    (0.169644941029 -0.19651017812 0.2)
    (0.168779057206 -0.19700998992 0.201427876097)
    (0.167711592986 -0.197626159431 0.202660444431)
    (0.16647498273 -0.198339964657 0.203660254038)
    (0.165106800215 -0.199129716985 0.204396926208)
    (0.163648616973 -0.199971420191 0.20484807753)
    (0.162144739165 -0.200839499549 0.205)
    (0.0928608421254 -0.240832057828 0.205)
    (0.0913569643175 -0.241700137186 0.20484807753)
    (0.0898987810759 -0.242541840392 0.204396926208)
    (0.0885305985604 -0.243331592721 0.203660254038)
    (0.0872939883044 -0.244045397946 0.202660444431)
    (0.0862265240847 -0.244661567458 0.201427876097)
    (0.0853606402617 -0.245161379257 0.2)
    (0.0847226462769 -0.245529646816 0.198420201433)
    (0.0843319272549 -0.24575518051 0.196736481777)
    (0.0842003549954 -0.245831127613 0.195)
    (0.0842003549954 -0.245831127613 -0.135)
    (0.0843319272549 -0.24575518051 -0.136736481777)
    (0.0847226462769 -0.245529646816 -0.138420201433)
    (0.0853606402617 -0.245161379257 -0.14)
    (0.0862265240847 -0.244661567458 -0.141427876097)
    (0.0872939883044 -0.244045397946 -0.142660444431)
    (0.0885305985604 -0.243331592721 -0.143660254038)
    (0.0898987810759 -0.242541840392 -0.144396926208)
    (0.0913569643176 -0.241700137186 -0.14484807753)
    (0.0928608421254 -0.240832057828 -0.145)
    (0.162144739165 -0.200839499549 -0.145)
    (0.163648616973 -0.199971420191 -0.14484807753)
    (0.165106800215 -0.199129716985 -0.144396926208)
    (0.16647498273 -0.198339964657 -0.143660254038)
    (0.167711592986 -0.197626159431 -0.142660444431)
    (0.168779057206 -0.19700998992 -0.141427876097)
    (0.169644941029 -0.19651017812 -0.14)
    (0.170282935014 -0.196141910561 -0.138420201433)
    (0.170673654036 -0.195916376867 -0.136736481777)
    (0.170805226295 -0.195840429764 -0.135)
    (0.17513546986 -0.193340894872 0.195)
    (0.174938111471 -0.193454815526 0.197604722665)
    (0.174352032938 -0.193793116068 0.20013030215)
    (0.173395041961 -0.194345517406 0.2025)
    (0.172096216226 -0.195095235105 0.204641814145)
    (0.170495019897 -0.196019489373 0.206490666647)
    (0.168640104513 -0.19709019721 0.207990381057)
    (0.16658783074 -0.198274825703 0.209095389312)
    (0.164400555877 -0.199537380512 0.209772116295)
    (0.162144739165 -0.200839499549 0.21)
    (0.0928608421254 -0.240832057828 0.21)
    (0.0906050254136 -0.242134176865 0.209772116295)
    (0.0884177505512 -0.243396731675 0.209095389312)
    (0.0863654767779 -0.244581360167 0.207990381057)
    (0.0845105613939 -0.245652068005 0.206490666647)
    (0.0829093650644 -0.246576322272 0.204641814145)
    (0.0816105393298 -0.247326039972 0.2025)
    (0.0806535483527 -0.24787844131 0.20013030215)
    (0.0800674698197 -0.248216741851 0.197604722665)
    (0.0798701114304 -0.248330662505 0.195)
    (0.0798701114304 -0.248330662505 -0.135)
    (0.0800674698197 -0.248216741851 -0.137604722665)
    (0.0806535483527 -0.24787844131 -0.14013030215)
    (0.0816105393298 -0.247326039972 -0.1425)
    (0.0829093650644 -0.246576322272 -0.144641814145)
    (0.0845105613939 -0.245652068005 -0.146490666647)
    (0.0863654767779 -0.244581360167 -0.147990381057)
    (0.0884177505512 -0.243396731675 -0.149095389312)
    (0.0906050254136 -0.242134176865 -0.149772116295)
    (0.0928608421254 -0.240832057828 -0.15)
    (0.162144739165 -0.200839499549 -0.15)
    (0.164400555877 -0.199537380512 -0.149772116295)
    (0.16658783074 -0.198274825703 -0.149095389312)
    (0.168640104513 -0.19709019721 -0.147990381057)
    (0.170495019897 -0.196019489373 -0.146490666647)
    (0.172096216226 -0.195095235105 -0.144641814145)
    (0.173395041961 -0.194345517406 -0.1425)
    (0.174352032938 -0.193793116068 -0.14013030215)
    (0.174938111471 -0.193454815526 -0.137604722665)
    (0.17513546986 -0.193340894872 -0.135)
    (0.179465713425 -0.190841359979 0.195)
    (0.179202568906 -0.190993254185 0.198472963553)
    (0.178421130862 -0.191444321574 0.201840402867)
    (0.177145142893 -0.192180856691 0.205)
    (0.175413375247 -0.19318048029 0.207855752194)
    (0.173278446807 -0.194412819314 0.210320888862)
    (0.170805226295 -0.195840429764 0.212320508076)
    (0.168068861264 -0.19741993442 0.213793852416)
    (0.165152494781 -0.199103340833 0.21469615506)
    (0.162144739165 -0.200839499549 0.215)
    (0.0928608421254 -0.240832057828 0.215)
    (0.0898530865097 -0.242568216544 0.21469615506)
    (0.0869367200264 -0.244251622957 0.213793852416)
    (0.0842003549954 -0.245831127613 0.212320508076)
    (0.0817271344834 -0.247258738063 0.210320888862)
    (0.0795922060441 -0.248491077087 0.207855752194)
    (0.0778604383979 -0.249490700686 0.205)
    (0.0765844504284 -0.250227235803 0.201840402867)
    (0.0758030123844 -0.250678303192 0.198472963553)
    (0.0755398678654 -0.250830197398 0.195)
    (0.0755398678654 -0.250830197398 -0.135)
    (0.0758030123844 -0.250678303192 -0.138472963553)
    (0.0765844504284 -0.250227235803 -0.141840402867)
    (0.0778604383979 -0.249490700686 -0.145)
    (0.0795922060441 -0.248491077087 -0.147855752194)
    (0.0817271344834 -0.247258738063 -0.150320888862)
    (0.0842003549954 -0.245831127613 -0.152320508076)
    (0.0869367200264 -0.244251622957 -0.153793852416)
    (0.0898530865097 -0.242568216544 -0.15469615506)
    (0.0928608421254 -0.240832057828 -0.155)
    (0.162144739165 -0.200839499549 -0.155)
    (0.165152494781 -0.199103340833 -0.15469615506)
    (0.168068861264 -0.19741993442 -0.153793852416)
    (0.170805226295 -0.195840429764 -0.152320508076)
    (0.173278446807 -0.194412819314 -0.150320888862)
    (0.175413375247 -0.19318048029 -0.147855752194)
    (0.177145142893 -0.192180856691 -0.145)
    (0.178421130862 -0.191444321574 -0.141840402867)
    (0.179202568906 -0.190993254185 -0.138472963553)
    (0.179465713425 -0.190841359979 -0.135)
    (0.18379595699 -0.188341825087 0.195)
    (0.183467026342 -0.188531692844 0.199341204442)
    (0.182490228787 -0.18909552708 0.203550503583)
    (0.180895243825 -0.190016195977 0.2075)
    (0.178730534267 -0.191265725475 0.211069690242)
    (0.176061873718 -0.192806149255 0.214151111078)
    (0.172970348078 -0.194590662318 0.216650635095)
    (0.169549891789 -0.196565043138 0.21849231552)
    (0.165904433685 -0.198669301154 0.219620193825)
    (0.162144739165 -0.200839499549 0.22)
    (0.0928608421254 -0.240832057828 0.22)
    (0.0891011476058 -0.243002256224 0.219620193825)
    (0.0854556895017 -0.245106514239 0.21849231552)
    (0.0820352332129 -0.247080895059 0.216650635095)
    (0.0789437075729 -0.248865408122 0.214151111078)
    (0.0762750470238 -0.250405831902 0.211069690242)
    (0.0741103374661 -0.251655361401 0.2075)
    (0.0725153525042 -0.252576030297 0.203550503583)
    (0.0715385549492 -0.253139864533 0.199341204442)
    (0.0712096243004 -0.25332973229 0.195)
    (0.0712096243004 -0.25332973229 -0.135)
    (0.0715385549492 -0.253139864533 -0.139341204442)
    (0.0725153525042 -0.252576030297 -0.143550503583)
    (0.0741103374661 -0.251655361401 -0.1475)
    (0.0762750470238 -0.250405831902 -0.151069690242)
    (0.0789437075729 -0.248865408122 -0.154151111078)
    (0.0820352332129 -0.247080895059 -0.156650635095)
    (0.0854556895017 -0.245106514239 -0.15849231552)
    (0.0891011476058 -0.243002256224 -0.159620193825)
    (0.0928608421254 -0.240832057828 -0.16)
    (0.162144739165 -0.200839499549 -0.16)
    (0.165904433685 -0.198669301154 -0.159620193825)
    (0.169549891789 -0.196565043138 -0.15849231552)
    (0.172970348078 -0.194590662318 -0.156650635095)
    (0.176061873718 -0.192806149255 -0.154151111078)
    (0.178730534267 -0.191265725475 -0.151069690242)
    (0.180895243825 -0.190016195977 -0.1475)
    (0.182490228787 -0.18909552708 -0.143550503583)
    (0.183467026342 -0.188531692844 -0.139341204442)
    (0.18379595699 -0.188341825087 -0.135)
    (0.188126200555 -0.185842290194 0.195)
    (0.187731483777 -0.186070131503 0.20020944533)
    (0.186559326711 -0.186746732586 0.2052606043)
    (0.184645344757 -0.187851535262 0.21)
    (0.182047693287 -0.189350970661 0.214283628291)
    (0.178845300628 -0.191199479196 0.217981333294)
    (0.17513546986 -0.193340894872 0.220980762114)
    (0.171030922314 -0.195710151856 0.223190778624)
    (0.166656372589 -0.198235261475 0.22454423259)
    (0.162144739165 -0.200839499549 0.225)
    (0.0928608421254 -0.240832057828 0.225)
    (0.0883492087019 -0.243436295903 0.22454423259)
    (0.083974658977 -0.245961405521 0.223190778624)
    (0.0798701114304 -0.248330662505 0.220980762114)
    (0.0761602806623 -0.250472078181 0.217981333294)
    (0.0729578880035 -0.252320586716 0.214283628291)
    (0.0703602365342 -0.253820022115 0.21)
    (0.06844625458 -0.254924824791 0.2052606043)
    (0.0672740975139 -0.255601425874 0.20020944533)
    (0.0668793807354 -0.255829267183 0.195)
    (0.0668793807354 -0.255829267183 -0.135)
    (0.0672740975139 -0.255601425874 -0.14020944533)
    (0.06844625458 -0.254924824791 -0.1452606043)
    (0.0703602365342 -0.253820022115 -0.15)
    (0.0729578880035 -0.252320586716 -0.154283628291)
    (0.0761602806623 -0.250472078181 -0.157981333294)
    (0.0798701114304 -0.248330662505 -0.160980762114)
    (0.083974658977 -0.245961405521 -0.163190778624)
    (0.0883492087019 -0.243436295903 -0.16454423259)
    (0.0928608421254 -0.240832057828 -0.165)
    (0.162144739165 -0.200839499549 -0.165)
    (0.166656372589 -0.198235261475 -0.16454423259)
    (0.171030922314 -0.195710151856 -0.163190778624)
    (0.17513546986 -0.193340894872 -0.160980762114)
    (0.178845300628 -0.191199479196 -0.157981333294)
    (0.182047693287 -0.189350970661 -0.154283628291)
    (0.184645344757 -0.187851535262 -0.15)
    (0.186559326711 -0.186746732586 -0.1452606043)
    (0.187731483777 -0.186070131503 -0.14020944533)
    (0.188126200555 -0.185842290194 -0.135)
    (0.19245644412 -0.183342755302 0.195)
    (0.191995941212 -0.183608570162 0.201077686218)
    (0.190628424635 -0.184397938092 0.206970705016)
    (0.188395445688 -0.185686874548 0.2125)
    (0.185364852308 -0.187436215846 0.217497566339)
    (0.181628727539 -0.189592809137 0.221811555509)
    (0.177300591643 -0.192091127426 0.225310889132)
    (0.172511952839 -0.194855260574 0.227889241728)
    (0.167408311493 -0.197801221795 0.229468271355)
    (0.162144739165 -0.200839499549 0.23)
    (0.0928608421254 -0.240832057828 0.23)
    (0.087597269798 -0.243870335582 0.229468271355)
    (0.0824936284522 -0.246816296803 0.227889241728)
    (0.0777049896479 -0.249580429952 0.225310889132)
    (0.0733768537518 -0.25207874824 0.221811555509)
    (0.0696407289831 -0.254235341531 0.217497566339)
    (0.0666101356023 -0.25598468283 0.2125)
    (0.0643771566557 -0.257273619285 0.206970705016)
    (0.0630096400787 -0.258062987215 0.201077686218)
    (0.0625491371704 -0.258328802075 0.195)
    (0.0625491371704 -0.258328802075 -0.135)
    (0.0630096400787 -0.258062987215 -0.141077686218)
    (0.0643771566557 -0.257273619285 -0.146970705016)
    (0.0666101356023 -0.25598468283 -0.1525)
    (0.0696407289831 -0.254235341531 -0.157497566339)
    (0.0733768537518 -0.25207874824 -0.161811555509)
    (0.0777049896479 -0.249580429952 -0.165310889132)
    (0.0824936284522 -0.246816296803 -0.167889241728)
    (0.087597269798 -0.243870335582 -0.169468271355)
    (0.0928608421254 -0.240832057828 -0.17)
    (0.162144739165 -0.200839499549 -0.17)
    (0.167408311493 -0.197801221795 -0.169468271355)
    (0.172511952839 -0.194855260574 -0.167889241728)
    (0.177300591643 -0.192091127426 -0.165310889132)
    (0.181628727539 -0.189592809137 -0.161811555509)
    (0.185364852308 -0.187436215846 -0.157497566339)
    (0.188395445688 -0.185686874548 -0.1525)
    (0.190628424635 -0.184397938092 -0.146970705016)
    (0.191995941212 -0.183608570162 -0.141077686218)
    (0.19245644412 -0.183342755302 -0.135)
    (0.196786687685 -0.18084322041 0.195)
    (0.196260398647 -0.181147008821 0.201945927107)
    (0.194697522559 -0.182049143599 0.208680805733)
    (0.19214554662 -0.183522213833 0.215)
    (0.188682011328 -0.185521461031 0.220711504387)
    (0.184412154449 -0.187986139078 0.225641777725)
    (0.179465713425 -0.190841359979 0.229641016151)
    (0.173992983363 -0.194000369292 0.232587704831)
    (0.168160250397 -0.197367182116 0.23439231012)
    (0.162144739165 -0.200839499549 0.235)
    (0.0928608421254 -0.240832057828 0.235)
    (0.0868453308941 -0.244304375261 0.23439231012)
    (0.0810125979275 -0.247671188085 0.232587704831)
    (0.0755398678654 -0.250830197398 0.229641016151)
    (0.0705934268413 -0.253685418299 0.225641777725)
    (0.0663235699628 -0.256150096346 0.220711504387)
    (0.0628600346705 -0.258149343544 0.215)
    (0.0603080587315 -0.259622413779 0.208680805733)
    (0.0587451826434 -0.260524548556 0.201945927107)
    (0.0582188936054 -0.260828336968 0.195)
    (0.0582188936054 -0.260828336968 -0.135)
    (0.0587451826434 -0.260524548556 -0.141945927107)
    (0.0603080587315 -0.259622413779 -0.148680805733)
    (0.0628600346705 -0.258149343544 -0.155)
    (0.0663235699628 -0.256150096346 -0.160711504387)
    (0.0705934268413 -0.253685418299 -0.165641777725)
    (0.0755398678654 -0.250830197398 -0.169641016151)
    (0.0810125979275 -0.247671188085 -0.172587704831)
    (0.0868453308941 -0.244304375261 -0.17439231012)
    (0.0928608421254 -0.240832057828 -0.175)
    (0.162144739165 -0.200839499549 -0.175)
    (0.168160250397 -0.197367182116 -0.17439231012)
    (0.173992983363 -0.194000369292 -0.172587704831)
    (0.179465713425 -0.190841359979 -0.169641016151)
    (0.184412154449 -0.187986139078 -0.165641777725)
    (0.188682011328 -0.185521461031 -0.160711504387)
    (0.19214554662 -0.183522213833 -0.155)
    (0.194697522559 -0.182049143599 -0.148680805733)
    (0.196260398647 -0.181147008821 -0.141945927107)
    (0.196786687685 -0.18084322041 -0.135)
    (0.20111693125 -0.178343685517 0.195)
    (0.200524856083 -0.17868544748 0.202814167995)
    (0.198766620483 -0.179700349105 0.21039090645)
    (0.195895647552 -0.181357553119 0.2175)
    (0.191999170348 -0.183606706216 0.223925442436)
    (0.18719558136 -0.18637946902 0.22947199994)
    (0.181630835208 -0.189591592533 0.23397114317)
    (0.175474013888 -0.19314547801 0.237286167935)
    (0.168912189301 -0.196933142437 0.239316348886)
    (0.162144739165 -0.200839499549 0.24)
    (0.0928608421254 -0.240832057828 0.24)
    (0.0860933919901 -0.24473841494 0.239316348886)
    (0.0795315674028 -0.248526079368 0.237286167935)
    (0.0733747460829 -0.252079964844 0.23397114317)
    (0.0678099999308 -0.255292088358 0.22947199994)
    (0.0630064109425 -0.258064851161 0.223925442436)
    (0.0591099337386 -0.260314004259 0.2175)
    (0.0562389608073 -0.261971208272 0.21039090645)
    (0.0544807252082 -0.262986109897 0.202814167995)
    (0.0538886500404 -0.26332787186 0.195)
    (0.0538886500404 -0.26332787186 -0.135)
    (0.0544807252082 -0.262986109897 -0.142814167995)
    (0.0562389608073 -0.261971208272 -0.15039090645)
    (0.0591099337386 -0.260314004259 -0.1575)
    (0.0630064109425 -0.258064851161 -0.163925442436)
    (0.0678099999308 -0.255292088358 -0.16947199994)
    (0.0733747460829 -0.252079964844 -0.17397114317)
    (0.0795315674028 -0.248526079368 -0.177286167935)
    (0.0860933919901 -0.24473841494 -0.179316348886)
    (0.0928608421254 -0.240832057828 -0.18)
    (0.162144739165 -0.200839499549 -0.18)
    (0.168912189301 -0.196933142437 -0.179316348886)
    (0.175474013888 -0.19314547801 -0.177286167935)
    (0.181630835208 -0.189591592533 -0.17397114317)
    (0.18719558136 -0.18637946902 -0.16947199994)
    (0.191999170348 -0.183606706216 -0.163925442436)
    (0.195895647552 -0.181357553119 -0.1575)
    (0.198766620483 -0.179700349105 -0.15039090645)
    (0.200524856083 -0.17868544748 -0.142814167995)
    (0.20111693125 -0.178343685517 -0.135)
    (0.205447174815 -0.175844150625 0.195)
    (0.204789313518 -0.176223886139 0.203682408883)
    (0.202835718408 -0.177351554611 0.212101007166)
    (0.199645748484 -0.179192892404 0.22)
    (0.195316329369 -0.181691951402 0.227139380484)
    (0.18997900827 -0.184772798961 0.233302222156)
    (0.18379595699 -0.188341825087 0.238301270189)
    (0.176955044413 -0.192290586727 0.241984631039)
    (0.169664128205 -0.196499102758 0.244240387651)
    (0.162144739165 -0.200839499549 0.245)
    (0.0928608421254 -0.240832057828 0.245)
    (0.0853414530862 -0.245172454619 0.244240387651)
    (0.078050536878 -0.24938097065 0.241984631039)
    (0.0712096243004 -0.25332973229 0.238301270189)
    (0.0650265730203 -0.256898758416 0.233302222156)
    (0.0596892519222 -0.259979605975 0.227139380484)
    (0.0553598328068 -0.262478664973 0.22)
    (0.052169862883 -0.264320002766 0.212101007166)
    (0.050216267773 -0.265447671238 0.203682408883)
    (0.0495584064754 -0.265827406752 0.195)
    (0.0495584064754 -0.265827406752 -0.135)
    (0.050216267773 -0.265447671238 -0.143682408883)
    (0.052169862883 -0.264320002766 -0.152101007166)
    (0.0553598328068 -0.262478664973 -0.16)
    (0.0596892519222 -0.259979605975 -0.167139380484)
    (0.0650265730203 -0.256898758416 -0.173302222156)
    (0.0712096243004 -0.25332973229 -0.178301270189)
    (0.078050536878 -0.24938097065 -0.181984631039)
    (0.0853414530862 -0.245172454619 -0.184240387651)
    (0.0928608421254 -0.240832057828 -0.185)
    (0.162144739165 -0.200839499549 -0.185)
    (0.169664128205 -0.196499102758 -0.184240387651)
    (0.176955044413 -0.192290586727 -0.181984631039)
    (0.18379595699 -0.188341825087 -0.178301270189)
    (0.18997900827 -0.184772798961 -0.173302222156)
    (0.195316329369 -0.181691951402 -0.167139380484)
    (0.199645748484 -0.179192892404 -0.16)
    (0.202835718408 -0.177351554611 -0.152101007166)
    (0.204789313518 -0.176223886139 -0.143682408883)
    (0.205447174815 -0.175844150625 -0.135)
    (0.20977741838 -0.173344615732 0.195)
    (0.209053770953 -0.173762324798 0.204550649772)
    (0.206904816332 -0.175002760117 0.213811107883)
    (0.203395849416 -0.17702823169 0.2225)
    (0.198633488389 -0.179777196587 0.230353318533)
    (0.192762435181 -0.183166128902 0.237132444372)
    (0.185961078773 -0.187092057641 0.242631397208)
    (0.178436074937 -0.191435695445 0.246683094143)
    (0.170416067108 -0.196065063079 0.249164426416)
    (0.162144739165 -0.200839499549 0.25)
    (0.0928608421254 -0.240832057828 0.25)
    (0.0845895141823 -0.245606494298 0.249164426416)
    (0.0765695063533 -0.250235861932 0.246683094143)
    (0.0690445025179 -0.254579499736 0.242631397208)
    (0.0622431461098 -0.258505428475 0.237132444372)
    (0.0563720929019 -0.26189436079 0.230353318533)
    (0.0516097318749 -0.264643325688 0.2225)
    (0.0481007649588 -0.26666879726 0.213811107883)
    (0.0459518103377 -0.267909232579 0.204550649772)
    (0.0452281629104 -0.268326941645 0.195)
    (0.0452281629104 -0.268326941645 -0.135)
    (0.0459518103377 -0.267909232579 -0.144550649772)
    (0.0481007649588 -0.26666879726 -0.153811107883)
    (0.0516097318749 -0.264643325688 -0.1625)
    (0.0563720929019 -0.26189436079 -0.170353318533)
    (0.0622431461098 -0.258505428475 -0.177132444372)
    (0.0690445025179 -0.254579499736 -0.182631397208)
    (0.0765695063533 -0.250235861932 -0.186683094143)
    (0.0845895141823 -0.245606494298 -0.189164426416)
    (0.0928608421254 -0.240832057828 -0.19)
    (0.162144739165 -0.200839499549 -0.19)
    (0.170416067108 -0.196065063079 -0.189164426416)
    (0.178436074937 -0.191435695445 -0.186683094143)
    (0.185961078773 -0.187092057641 -0.182631397208)
    (0.192762435181 -0.183166128902 -0.177132444372)
    (0.198633488389 -0.179777196587 -0.170353318533)
    (0.203395849416 -0.17702823169 -0.1625)
    (0.206904816332 -0.175002760117 -0.153811107883)
    (0.209053770953 -0.173762324798 -0.144550649772)
    (0.20977741838 -0.173344615732 -0.135)
    (0.21311013157 -0.179118273819 0.195)
    (0.212386484143 -0.179535982885 0.204550649772)
    (0.210237529522 -0.180776418204 0.213811107883)
    (0.206728562606 -0.182801889776 0.2225)
    (0.201966201579 -0.185550854674 0.230353318533)
    (0.196095148371 -0.188939786989 0.237132444372)
    (0.189293791963 -0.192865715727 0.242631397208)
    (0.181768788127 -0.197209353532 0.246683094143)
    (0.173748780298 -0.201838721166 0.249164426416)
    (0.165477452355 -0.206613157636 0.25)
    (0.0961935553153 -0.246605715915 0.25)
    (0.0879222273722 -0.251380152385 0.249164426416)
    (0.0799022195432 -0.256009520018 0.246683094143)
    (0.0723772157078 -0.260353157823 0.242631397208)
    (0.0655758592997 -0.264279086562 0.237132444372)
    (0.0597048060918 -0.267668018877 0.230353318533)
    (0.0549424450648 -0.270416983774 0.2225)
    (0.0514334781487 -0.272442455347 0.213811107883)
    (0.0492845235276 -0.273682890666 0.204550649772)
    (0.0485608761003 -0.274100599732 0.195)
    (0.0485608761003 -0.274100599732 -0.135)
    (0.0492845235276 -0.273682890666 -0.144550649772)
    (0.0514334781487 -0.272442455347 -0.153811107883)
    (0.0549424450648 -0.270416983774 -0.1625)
    (0.0597048060918 -0.267668018877 -0.170353318533)
    (0.0655758592997 -0.264279086562 -0.177132444372)
    (0.0723772157078 -0.260353157823 -0.182631397208)
    (0.0799022195432 -0.256009520018 -0.186683094143)
    (0.0879222273722 -0.251380152385 -0.189164426416)
    (0.0961935553153 -0.246605715915 -0.19)
    (0.165477452355 -0.206613157636 -0.19)
    (0.173748780298 -0.201838721166 -0.189164426416)
    (0.181768788127 -0.197209353532 -0.186683094143)
    (0.189293791963 -0.192865715727 -0.182631397208)
    (0.196095148371 -0.188939786989 -0.177132444372)
    (0.201966201579 -0.185550854674 -0.170353318533)
    (0.206728562606 -0.182801889776 -0.1625)
    (0.210237529522 -0.180776418204 -0.153811107883)
    (0.212386484143 -0.179535982885 -0.144550649772)
    (0.21311013157 -0.179118273819 -0.135)
    (0.21644284476 -0.184891931906 0.195)
    (0.215719197333 -0.185309640971 0.204550649772)
    (0.213570242712 -0.18655007629 0.213811107883)
    (0.210061275796 -0.188575547863 0.2225)
    (0.205298914769 -0.19132451276 0.230353318533)
    (0.199427861561 -0.194713445075 0.237132444372)
    (0.192626505153 -0.198639373814 0.242631397208)
    (0.185101501317 -0.202983011619 0.246683094143)
    (0.177081493488 -0.207612379252 0.249164426416)
    (0.168810165545 -0.212386815722 0.25)
    (0.0995262685052 -0.252379374001 0.25)
    (0.0912549405621 -0.257153810471 0.249164426416)
    (0.0832349327331 -0.261783178105 0.246683094143)
    (0.0757099288977 -0.26612681591 0.242631397208)
    (0.0689085724896 -0.270052744649 0.237132444372)
    (0.0630375192817 -0.273441676963 0.230353318533)
    (0.0582751582547 -0.276190641861 0.2225)
    (0.0547661913386 -0.278216113433 0.213811107883)
    (0.0526172367176 -0.279456548752 0.204550649772)
    (0.0518935892902 -0.279874257818 0.195)
    (0.0518935892902 -0.279874257818 -0.135)
    (0.0526172367176 -0.279456548752 -0.144550649772)
    (0.0547661913386 -0.278216113433 -0.153811107883)
    (0.0582751582547 -0.276190641861 -0.1625)
    (0.0630375192817 -0.273441676963 -0.170353318533)
    (0.0689085724896 -0.270052744649 -0.177132444372)
    (0.0757099288977 -0.26612681591 -0.182631397208)
    (0.0832349327331 -0.261783178105 -0.186683094143)
    (0.0912549405621 -0.257153810471 -0.189164426416)
    (0.0995262685052 -0.252379374001 -0.19)
    (0.168810165545 -0.212386815722 -0.19)
    (0.177081493488 -0.207612379252 -0.189164426416)
    (0.185101501317 -0.202983011619 -0.186683094143)
    (0.192626505153 -0.198639373814 -0.182631397208)
    (0.199427861561 -0.194713445075 -0.177132444372)
    (0.205298914769 -0.19132451276 -0.170353318533)
    (0.210061275796 -0.188575547863 -0.1625)
    (0.213570242712 -0.18655007629 -0.153811107883)
    (0.215719197333 -0.185309640971 -0.144550649772)
    (0.21644284476 -0.184891931906 -0.135)
    (0.21977555795 -0.190665589992 0.195)
    (0.219051910523 -0.191083299058 0.204550649772)
    (0.216902955902 -0.192323734377 0.213811107883)
    (0.213393988986 -0.19434920595 0.2225)
    (0.208631627959 -0.197098170847 0.230353318533)
    (0.202760574751 -0.200487103162 0.237132444372)
    (0.195959218343 -0.204413031901 0.242631397208)
    (0.188434214507 -0.208756669705 0.246683094143)
    (0.180414206678 -0.213386037339 0.249164426416)
    (0.172142878735 -0.218160473809 0.25)
    (0.102858981695 -0.258153032088 0.25)
    (0.0945876537521 -0.262927468558 0.249164426416)
    (0.086567645923 -0.267556836192 0.246683094143)
    (0.0790426420876 -0.271900473996 0.242631397208)
    (0.0722412856796 -0.275826402735 0.237132444372)
    (0.0663702324716 -0.27921533505 0.230353318533)
    (0.0616078714446 -0.281964299948 0.2225)
    (0.0580989045285 -0.28398977152 0.213811107883)
    (0.0559499499075 -0.285230206839 0.204550649772)
    (0.0552263024801 -0.285647915905 0.195)
    (0.0552263024801 -0.285647915905 -0.135)
    (0.0559499499075 -0.285230206839 -0.144550649772)
    (0.0580989045285 -0.28398977152 -0.153811107883)
    (0.0616078714446 -0.281964299948 -0.1625)
    (0.0663702324716 -0.27921533505 -0.170353318533)
    (0.0722412856796 -0.275826402735 -0.177132444372)
    (0.0790426420876 -0.271900473996 -0.182631397208)
    (0.086567645923 -0.267556836192 -0.186683094143)
    (0.0945876537521 -0.262927468558 -0.189164426416)
    (0.102858981695 -0.258153032088 -0.19)
    (0.172142878735 -0.218160473809 -0.19)
    (0.180414206678 -0.213386037339 -0.189164426416)
    (0.188434214507 -0.208756669705 -0.186683094143)
    (0.195959218343 -0.204413031901 -0.182631397208)
    (0.202760574751 -0.200487103162 -0.177132444372)
    (0.208631627959 -0.197098170847 -0.170353318533)
    (0.213393988986 -0.19434920595 -0.1625)
    (0.216902955902 -0.192323734377 -0.153811107883)
    (0.219051910523 -0.191083299058 -0.144550649772)
    (0.21977555795 -0.190665589992 -0.135)
    (0.22310827114 -0.196439248079 0.195)
    (0.222384623713 -0.196856957145 0.204550649772)
    (0.220235669092 -0.198097392464 0.213811107883)
    (0.216726702176 -0.200122864036 0.2225)
    (0.211964341149 -0.202871828934 0.230353318533)
    (0.206093287941 -0.206260761249 0.237132444372)
    (0.199291931533 -0.210186689987 0.242631397208)
    (0.191766927697 -0.214530327792 0.246683094143)
    (0.183746919868 -0.219159695426 0.249164426416)
    (0.175475591925 -0.223934131896 0.25)
    (0.106191694885 -0.263926690175 0.25)
    (0.097920366942 -0.268701126645 0.249164426416)
    (0.089900359113 -0.273330494278 0.246683094143)
    (0.0823753552776 -0.277674132083 0.242631397208)
    (0.0755739988695 -0.281600060822 0.237132444372)
    (0.0697029456615 -0.284988993137 0.230353318533)
    (0.0649405846346 -0.287737958034 0.2225)
    (0.0614316177185 -0.289763429607 0.213811107883)
    (0.0592826630974 -0.291003864926 0.204550649772)
    (0.0585590156701 -0.291421573992 0.195)
    (0.0585590156701 -0.291421573992 -0.135)
    (0.0592826630974 -0.291003864926 -0.144550649772)
    (0.0614316177185 -0.289763429607 -0.153811107883)
    (0.0649405846346 -0.287737958034 -0.1625)
    (0.0697029456615 -0.284988993137 -0.170353318533)
    (0.0755739988695 -0.281600060822 -0.177132444372)
    (0.0823753552776 -0.277674132083 -0.182631397208)
    (0.089900359113 -0.273330494278 -0.186683094143)
    (0.097920366942 -0.268701126645 -0.189164426416)
    (0.106191694885 -0.263926690175 -0.19)
    (0.175475591925 -0.223934131896 -0.19)
    (0.183746919868 -0.219159695426 -0.189164426416)
    (0.191766927697 -0.214530327792 -0.186683094143)
    (0.199291931533 -0.210186689987 -0.182631397208)
    (0.206093287941 -0.206260761249 -0.177132444372)
    (0.211964341149 -0.202871828934 -0.170353318533)
    (0.216726702176 -0.200122864036 -0.1625)
    (0.220235669092 -0.198097392464 -0.153811107883)
    (0.222384623713 -0.196856957145 -0.144550649772)
    (0.22310827114 -0.196439248079 -0.135)
    (0.22644098433 -0.202212906166 0.195)
    (0.225717336903 -0.202630615231 0.204550649772)
    (0.223568382282 -0.20387105055 0.213811107883)
    (0.220059415365 -0.205896522123 0.2225)
    (0.215297054338 -0.20864548702 0.230353318533)
    (0.209426001131 -0.212034419335 0.237132444372)
    (0.202624644722 -0.215960348074 0.242631397208)
    (0.195099640887 -0.220303985879 0.246683094143)
    (0.187079633058 -0.224933353512 0.249164426416)
    (0.178808305115 -0.229707789982 0.25)
    (0.109524408075 -0.269700348261 0.25)
    (0.101253080132 -0.274474784731 0.249164426416)
    (0.0932330723029 -0.279104152365 0.246683094143)
    (0.0857080684675 -0.28344779017 0.242631397208)
    (0.0789067120594 -0.287373718909 0.237132444372)
    (0.0730356588515 -0.290762651223 0.230353318533)
    (0.0682732978245 -0.293511616121 0.2225)
    (0.0647643309084 -0.295537087693 0.213811107883)
    (0.0626153762873 -0.296777523012 0.204550649772)
    (0.06189172886 -0.297195232078 0.195)
    (0.06189172886 -0.297195232078 -0.135)
    (0.0626153762873 -0.296777523012 -0.144550649772)
    (0.0647643309084 -0.295537087693 -0.153811107883)
    (0.0682732978245 -0.293511616121 -0.1625)