/*--------------------------------*- C++ -*----------------------------------*\
| =========                 |                                                 |
| \\      /  F ield         | foam-extend: Open Source CFD                    |
|  \\    /   O peration     | Version:     4.0                                |
|   \\  /    A nd           | Web:         http://www.extend-project.de       |
|    \\/     M anipulation  | For copyright notice see file Copyright         |
\*---------------------------------------------------------------------------*/
FoamFile
{
    version     2.0;
    format      ascii;
    class       featureEdgeMesh;
    object      coil3;
}
// * * * * * * * * * * * * * * * * * * * * * * * * * * * * * * * * * * * * * //

// points:

1440
(
    (-0.254999999868 -0.0500000001606 0.195)
    (-0.254999999868 -0.0498480776902 0.196736481777)
    (-0.254999999868 -0.0493969263663 0.198420201433)
    (-0.254999999868 -0.0486602541937 0.2)
    (-0.254999999869 -0.0476604445835 0.201427876097)
    (-0.25499999987 -0.0464278762448 0.202660444431)
    (-0.25499999987 -0.0450000001429 0.203660254038)
    (-0.254999999871 -0.0434202015706 0.204396926208)
    (-0.254999999872 -0.0417364819081 0.20484807753)
    (-0.254999999873 -0.0400000001253 0.205)
    (-0.254999999915 0.040000000157 0.205)
    (-0.254999999916 0.0417364819398 0.20484807753)
    (-0.254999999917 0.0434202016024 0.204396926208)
    (-0.254999999918 0.0450000001747 0.203660254038)
    (-0.254999999919 0.0464278762766 0.202660444431)
    (-0.254999999919 0.0476604446153 0.201427876097)
    (-0.25499999992 0.0486602542254 0.2)
    (-0.25499999992 0.0493969263981 0.198420201433)
    (-0.25499999992 0.0498480777219 0.196736481777)
    (-0.254999999921 0.0500000001923 0.195)
    (-0.254999999921 0.0500000001923 -0.135)
    (-0.25499999992 0.0498480777219 -0.136736481777)
    (-0.25499999992 0.0493969263981 -0.138420201433)
    (-0.25499999992 0.0486602542254 -0.14)
    (-0.254999999919 0.0476604446153 -0.141427876097)
    (-0.254999999919 0.0464278762766 -0.142660444431)
    (-0.254999999918 0.0450000001747 -0.143660254038)
    (-0.254999999917 0.0434202016024 -0.144396926208)
    (-0.254999999916 0.0417364819398 -0.14484807753)
    (-0.254999999915 0.040000000157 -0.145)
    (-0.254999999873 -0.0400000001253 -0.145)
    (-0.254999999872 -0.0417364819081 -0.14484807753)
    (-0.254999999871 -0.0434202015706 -0.144396926208)
    (-0.25499999987 -0.0450000001429 -0.143660254038)
    (-0.25499999987 -0.0464278762448 -0.142660444431)
    (-0.254999999869 -0.0476604445835 -0.141427876097)
    (-0.254999999868 -0.0486602541937 -0.14)
    (-0.254999999868 -0.0493969263663 -0.138420201433)
    (-0.254999999868 -0.0498480776902 -0.136736481777)
    (-0.254999999868 -0.0500000001606 -0.135)
    (-0.254999999865 -0.0550000001782 0.195)
    (-0.254999999865 -0.0547721164726 0.197604722665)
    (-0.254999999866 -0.0540953894868 0.20013030215)
    (-0.254999999866 -0.0529903812279 0.2025)
    (-0.254999999867 -0.0514906668126 0.204641814145)
    (-0.254999999868 -0.0496418143046 0.206490666647)
    (-0.254999999869 -0.0475000001518 0.207990381057)
    (-0.25499999987 -0.0451303022933 0.209095389312)
    (-0.254999999872 -0.0426047227995 0.209772116295)
    (-0.254999999873 -0.0400000001253 0.21)
    (-0.254999999915 0.040000000157 0.21)
    (-0.254999999917 0.0426047228312 0.209772116295)
    (-0.254999999918 0.045130302325 0.209095389312)
    (-0.254999999919 0.0475000001835 0.207990381057)
    (-0.25499999992 0.0496418143364 0.206490666647)
    (-0.254999999921 0.0514906668444 0.204641814145)
    (-0.254999999922 0.0529903812596 0.2025)
    (-0.254999999923 0.0540953895186 0.20013030215)
    (-0.254999999923 0.0547721165043 0.197604722665)
    (-0.254999999923 0.05500000021 0.195)
    (-0.254999999923 0.05500000021 -0.135)
    (-0.254999999923 0.0547721165043 -0.137604722665)
    (-0.254999999923 0.0540953895186 -0.14013030215)
    (-0.254999999922 0.0529903812596 -0.1425)
    (-0.254999999921 0.0514906668444 -0.144641814145)
    (-0.25499999992 0.0496418143364 -0.146490666647)
    (-0.254999999919 0.0475000001835 -0.147990381057)
    (-0.254999999918 0.045130302325 -0.149095389312)
    (-0.254999999917 0.0426047228312 -0.149772116295)
    (-0.254999999915 0.040000000157 -0.15)
    (-0.254999999873 -0.0400000001253 -0.15)
    (-0.254999999872 -0.0426047227995 -0.149772116295)
    (-0.25499999987 -0.0451303022933 -0.149095389312)
    (-0.254999999869 -0.0475000001518 -0.147990381057)
    (-0.254999999868 -0.0496418143046 -0.146490666647)
    (-0.254999999867 -0.0514906668126 -0.144641814145)
    (-0.254999999866 -0.0529903812279 -0.1425)
    (-0.254999999866 -0.0540953894868 -0.14013030215)
    (-0.254999999865 -0.0547721164726 -0.137604722665)
    (-0.254999999865 -0.0550000001782 -0.135)
    (-0.254999999862 -0.0600000001959 0.195)
    (-0.254999999863 -0.059696155255 0.198472963553)
    (-0.254999999863 -0.0587938526073 0.201840402867)
    (-0.254999999864 -0.0573205082621 0.205)
    (-0.254999999865 -0.0553208890417 0.207855752194)
    (-0.254999999866 -0.0528557523644 0.210320888862)
    (-0.254999999868 -0.0500000001606 0.212320508076)
    (-0.254999999869 -0.0468404030159 0.213793852416)
    (-0.254999999871 -0.0434729636909 0.21469615506)
    (-0.254999999873 -0.0400000001253 0.215)
    (-0.254999999915 0.040000000157 0.215)
    (-0.254999999917 0.0434729637226 0.21469615506)
    (-0.254999999919 0.0468404030477 0.213793852416)
    (-0.254999999921 0.0500000001923 0.212320508076)
    (-0.254999999922 0.0528557523961 0.210320888862)
    (-0.254999999923 0.0553208890735 0.207855752194)
    (-0.254999999924 0.0573205082938 0.205)
    (-0.254999999925 0.0587938526391 0.201840402867)
    (-0.254999999926 0.0596961552868 0.198472963553)
    (-0.254999999926 0.0600000002276 0.195)
    (-0.254999999926 0.0600000002276 -0.135)
    (-0.254999999926 0.0596961552868 -0.138472963553)
    (-0.254999999925 0.0587938526391 -0.141840402867)
    (-0.254999999924 0.0573205082938 -0.145)
    (-0.254999999923 0.0553208890735 -0.147855752194)
    (-0.254999999922 0.0528557523961 -0.150320888862)
    (-0.254999999921 0.0500000001923 -0.152320508076)
    (-0.254999999919 0.0468404030477 -0.153793852416)
    (-0.254999999917 0.0434729637226 -0.15469615506)
    (-0.254999999915 0.040000000157 -0.155)
    (-0.254999999873 -0.0400000001253 -0.155)
    (-0.254999999871 -0.0434729636909 -0.15469615506)
    (-0.254999999869 -0.0468404030159 -0.153793852416)
    (-0.254999999868 -0.0500000001606 -0.152320508076)
    (-0.254999999866 -0.0528557523644 -0.150320888862)
    (-0.254999999865 -0.0553208890417 -0.147855752194)
    (-0.254999999864 -0.0573205082621 -0.145)
    (-0.254999999863 -0.0587938526073 -0.141840402867)
    (-0.254999999863 -0.059696155255 -0.138472963553)
    (-0.254999999862 -0.0600000001959 -0.135)
    (-0.25499999986 -0.0650000002135 0.195)
    (-0.25499999986 -0.0646201940375 0.199341204442)
    (-0.254999999861 -0.0634923157278 0.203550503583)
    (-0.254999999862 -0.0616506352963 0.2075)
    (-0.254999999863 -0.0591511112709 0.211069690242)
    (-0.254999999864 -0.0560696904242 0.214151111078)
    (-0.254999999866 -0.0525000001694 0.216650635095)
    (-0.254999999868 -0.0485505037386 0.21849231552)
    (-0.254999999871 -0.0443412045823 0.219620193825)
    (-0.254999999873 -0.0400000001253 0.22)
    (-0.254999999915 0.040000000157 0.22)
    (-0.254999999918 0.044341204614 0.219620193825)
    (-0.25499999992 0.0485505037703 0.21849231552)
    (-0.254999999922 0.0525000002011 0.216650635095)
    (-0.254999999924 0.0560696904559 0.214151111078)
    (-0.254999999925 0.0591511113026 0.211069690242)
    (-0.254999999927 0.061650635328 0.2075)
    (-0.254999999928 0.0634923157596 0.203550503583)
    (-0.254999999928 0.0646201940692 0.199341204442)
    (-0.254999999929 0.0650000002453 0.195)
    (-0.254999999929 0.0650000002453 -0.135)
    (-0.254999999928 0.0646201940692 -0.139341204442)
    (-0.254999999928 0.0634923157596 -0.143550503583)
    (-0.254999999927 0.061650635328 -0.1475)
    (-0.254999999925 0.0591511113026 -0.151069690242)
    (-0.254999999924 0.0560696904559 -0.154151111078)
    (-0.254999999922 0.0525000002011 -0.156650635095)
    (-0.25499999992 0.0485505037703 -0.15849231552)
    (-0.254999999918 0.044341204614 -0.159620193825)
    (-0.254999999915 0.040000000157 -0.16)
    (-0.254999999873 -0.0400000001253 -0.16)
    (-0.254999999871 -0.0443412045823 -0.159620193825)
    (-0.254999999868 -0.0485505037386 -0.15849231552)
    (-0.254999999866 -0.0525000001694 -0.156650635095)
    (-0.254999999864 -0.0560696904242 -0.154151111078)
    (-0.254999999863 -0.0591511112709 -0.151069690242)
    (-0.254999999862 -0.0616506352963 -0.1475)
    (-0.254999999861 -0.0634923157279 -0.143550503583)
    (-0.25499999986 -0.0646201940375 -0.139341204442)
    (-0.25499999986 -0.0650000002135 -0.135)
    (-0.254999999857 -0.0700000002312 0.195)
    (-0.254999999857 -0.0695442328199 0.20020944533)
    (-0.254999999858 -0.0681907788484 0.2052606043)
    (-0.254999999859 -0.0659807623305 0.21)
    (-0.254999999861 -0.0629813335 0.214283628291)
    (-0.254999999863 -0.0592836284839 0.217981333294)
    (-0.254999999865 -0.0550000001782 0.220980762114)
    (-0.254999999868 -0.0502606044613 0.223190778624)
    (-0.25499999987 -0.0452094454737 0.22454423259)
    (-0.254999999873 -0.0400000001253 0.225)
    (-0.254999999915 0.040000000157 0.225)
    (-0.254999999918 0.0452094455054 0.22454423259)
    (-0.254999999921 0.050260604493 0.223190778624)
    (-0.254999999923 0.05500000021 0.220980762114)
    (-0.254999999925 0.0592836285157 0.217981333294)
    (-0.254999999927 0.0629813335317 0.214283628291)
    (-0.254999999929 0.0659807623623 0.21)
    (-0.25499999993 0.0681907788801 0.2052606043)
    (-0.254999999931 0.0695442328517 0.20020944533)
    (-0.254999999931 0.0700000002629 0.195)
    (-0.254999999931 0.0700000002629 -0.135)
    (-0.254999999931 0.0695442328517 -0.14020944533)
    (-0.25499999993 0.0681907788801 -0.1452606043)
    (-0.254999999929 0.0659807623623 -0.15)
    (-0.254999999927 0.0629813335317 -0.154283628291)
    (-0.254999999925 0.0592836285157 -0.157981333294)
    (-0.254999999923 0.05500000021 -0.160980762114)
    (-0.254999999921 0.050260604493 -0.163190778624)
    (-0.254999999918 0.0452094455054 -0.16454423259)
    (-0.254999999915 0.040000000157 -0.165)
    (-0.254999999873 -0.0400000001253 -0.165)
    (-0.25499999987 -0.0452094454737 -0.16454423259)
    (-0.254999999868 -0.0502606044613 -0.163190778624)
    (-0.254999999865 -0.0550000001782 -0.160980762114)
    (-0.254999999863 -0.0592836284839 -0.157981333294)
    (-0.254999999861 -0.0629813335 -0.154283628291)
    (-0.254999999859 -0.0659807623305 -0.15)
    (-0.254999999858 -0.0681907788484 -0.1452606043)
    (-0.254999999857 -0.0695442328199 -0.14020944533)
    (-0.254999999857 -0.0700000002312 -0.135)
    (-0.254999999854 -0.0750000002488 0.195)
    (-0.254999999855 -0.0744682716024 0.201077686218)
    (-0.254999999856 -0.0728892419689 0.206970705016)
    (-0.254999999857 -0.0703108893647 0.2125)
    (-0.254999999859 -0.0668115557291 0.217497566339)
    (-0.254999999861 -0.0624975665437 0.221811555509)
    (-0.254999999864 -0.0575000001871 0.225310889132)
    (-0.254999999867 -0.0519707051839 0.227889241728)
    (-0.25499999987 -0.0460776863651 0.229468271355)
    (-0.254999999873 -0.0400000001253 0.23)
    (-0.254999999915 0.040000000157 0.23)
    (-0.254999999918 0.0460776863968 0.229468271355)
    (-0.254999999922 0.0519707052157 0.227889241728)
    (-0.254999999925 0.0575000002188 0.225310889132)
    (-0.254999999927 0.0624975665755 0.221811555509)
    (-0.254999999929 0.0668115557608 0.217497566339)
    (-0.254999999931 0.0703108893965 0.2125)
    (-0.254999999933 0.0728892420006 0.206970705016)
    (-0.254999999934 0.0744682716341 0.201077686218)
    (-0.254999999934 0.0750000002805 0.195)
    (-0.254999999934 0.0750000002805 -0.135)
    (-0.254999999934 0.0744682716341 -0.141077686218)
    (-0.254999999933 0.0728892420006 -0.146970705016)
    (-0.254999999931 0.0703108893965 -0.1525)
    (-0.254999999929 0.0668115557608 -0.157497566339)
    (-0.254999999927 0.0624975665755 -0.161811555509)
    (-0.254999999925 0.0575000002188 -0.165310889132)
    (-0.254999999922 0.0519707052157 -0.167889241728)
    (-0.254999999918 0.0460776863968 -0.169468271355)
    (-0.254999999915 0.040000000157 -0.17)
    (-0.254999999873 -0.0400000001253 -0.17)
    (-0.25499999987 -0.0460776863651 -0.169468271355)
    (-0.254999999867 -0.0519707051839 -0.167889241728)
    (-0.254999999864 -0.0575000001871 -0.165310889132)
    (-0.254999999861 -0.0624975665437 -0.161811555509)
    (-0.254999999859 -0.0668115557291 -0.157497566339)
    (-0.254999999857 -0.0703108893647 -0.1525)
    (-0.254999999856 -0.0728892419689 -0.146970705016)
    (-0.254999999855 -0.0744682716024 -0.141077686218)
    (-0.254999999854 -0.0750000002488 -0.135)
    (-0.254999999852 -0.0800000002665 0.195)
    (-0.254999999852 -0.0793923103848 0.201945927107)
    (-0.254999999853 -0.0775877050894 0.208680805733)
    (-0.254999999855 -0.0746410163989 0.215)
    (-0.254999999857 -0.0706417779582 0.220711504387)
    (-0.254999999859 -0.0657115046035 0.225641777725)
    (-0.254999999862 -0.0600000001959 0.229641016151)
    (-0.254999999866 -0.0536808059066 0.232587704831)
    (-0.254999999869 -0.0469459272565 0.23439231012)
    (-0.254999999873 -0.0400000001253 0.235)
    (-0.254999999915 0.040000000157 0.235)
    (-0.254999999919 0.0469459272882 0.23439231012)
    (-0.254999999923 0.0536808059383 0.232587704831)
    (-0.254999999926 0.0600000002276 0.229641016151)
    (-0.254999999929 0.0657115046352 0.225641777725)
    (-0.254999999931 0.0706417779899 0.220711504387)
    (-0.254999999934 0.0746410164307 0.215)
    (-0.254999999935 0.0775877051211 0.208680805733)
    (-0.254999999936 0.0793923104165 0.201945927107)
    (-0.254999999936 0.0800000002982 0.195)
    (-0.254999999936 0.0800000002982 -0.135)
    (-0.254999999936 0.0793923104165 -0.141945927107)
    (-0.254999999935 0.0775877051211 -0.148680805733)
    (-0.254999999934 0.0746410164307 -0.155)
    (-0.254999999931 0.0706417779899 -0.160711504387)
    (-0.254999999929 0.0657115046352 -0.165641777725)
    (-0.254999999926 0.0600000002276 -0.169641016151)
    (-0.254999999923 0.0536808059383 -0.172587704831)
    (-0.254999999919 0.0469459272882 -0.17439231012)
    (-0.254999999915 0.040000000157 -0.175)
    (-0.254999999873 -0.0400000001253 -0.175)
    (-0.254999999869 -0.0469459272565 -0.17439231012)
    (-0.254999999866 -0.0536808059066 -0.172587704831)
    (-0.254999999862 -0.0600000001959 -0.169641016151)
    (-0.254999999859 -0.0657115046035 -0.165641777725)
    (-0.254999999857 -0.0706417779582 -0.160711504387)
    (-0.254999999855 -0.0746410163989 -0.155)
    (-0.254999999853 -0.0775877050894 -0.148680805733)
    (-0.254999999852 -0.0793923103848 -0.141945927107)
    (-0.254999999852 -0.0800000002665 -0.135)
    (-0.254999999849 -0.0850000002841 0.195)
    (-0.25499999985 -0.0843163491672 0.202814167995)
    (-0.254999999851 -0.0822861682099 0.21039090645)
    (-0.254999999852 -0.0789711434331 0.2175)
    (-0.254999999855 -0.0744720001873 0.223925442436)
    (-0.254999999858 -0.0689254426633 0.22947199994)
    (-0.254999999861 -0.0625000002047 0.23397114317)
    (-0.254999999865 -0.0553909066293 0.237286167935)
    (-0.254999999869 -0.0478141681479 0.239316348886)
    (-0.254999999873 -0.0400000001253 0.24)
    (-0.254999999915 0.040000000157 0.24)
    (-0.254999999919 0.0478141681796 0.239316348886)
    (-0.254999999923 0.055390906661 0.237286167935)
    (-0.254999999927 0.0625000002364 0.23397114317)
    (-0.254999999931 0.068925442695 0.22947199994)
    (-0.254999999934 0.074472000219 0.223925442436)
    (-0.254999999936 0.0789711434649 0.2175)
    (-0.254999999938 0.0822861682416 0.21039090645)
    (-0.254999999939 0.084316349199 0.202814167995)
    (-0.254999999939 0.0850000003158 0.195)
    (-0.254999999939 0.0850000003158 -0.135)
    (-0.254999999939 0.084316349199 -0.142814167995)
    (-0.254999999938 0.0822861682416 -0.15039090645)
    (-0.254999999936 0.0789711434649 -0.1575)
    (-0.254999999934 0.074472000219 -0.163925442436)
    (-0.254999999931 0.068925442695 -0.16947199994)
    (-0.254999999927 0.0625000002364 -0.17397114317)
    (-0.254999999923 0.055390906661 -0.177286167935)
    (-0.254999999919 0.0478141681796 -0.179316348886)
    (-0.254999999915 0.040000000157 -0.18)
    (-0.254999999873 -0.0400000001253 -0.18)
    (-0.254999999869 -0.0478141681479 -0.179316348886)
    (-0.254999999865 -0.0553909066293 -0.177286167935)
    (-0.254999999861 -0.0625000002047 -0.17397114317)
    (-0.254999999858 -0.0689254426633 -0.16947199994)
    (-0.254999999855 -0.0744720001873 -0.163925442436)
    (-0.254999999852 -0.0789711434331 -0.1575)
    (-0.254999999851 -0.0822861682099 -0.15039090645)
    (-0.25499999985 -0.0843163491672 -0.142814167995)
    (-0.254999999849 -0.0850000002841 -0.135)
    (-0.254999999847 -0.0900000003017 0.195)
    (-0.254999999847 -0.0892403879497 0.203682408883)
    (-0.254999999848 -0.0869846313304 0.212101007166)
    (-0.25499999985 -0.0833012704673 0.22)
    (-0.254999999853 -0.0783022224164 0.227139380484)
    (-0.254999999856 -0.072139380723 0.233302222156)
    (-0.25499999986 -0.0650000002135 0.238301270189)
    (-0.254999999864 -0.0571010073519 0.241984631039)
    (-0.254999999868 -0.0486824090393 0.244240387651)
    (-0.254999999873 -0.0400000001253 0.245)
    (-0.254999999915 0.040000000157 0.245)
    (-0.25499999992 0.048682409071 0.244240387651)
    (-0.254999999924 0.0571010073837 0.241984631039)
    (-0.254999999929 0.0650000002453 0.238301270189)
    (-0.254999999932 0.0721393807548 0.233302222156)
    (-0.254999999936 0.0783022224482 0.227139380484)
    (-0.254999999938 0.0833012704991 0.22)
    (-0.25499999994 0.0869846313621 0.212101007166)
    (-0.254999999941 0.0892403879814 0.203682408883)
    (-0.254999999942 0.0900000003335 0.195)
    (-0.254999999942 0.0900000003335 -0.135)
    (-0.254999999941 0.0892403879814 -0.143682408883)
    (-0.25499999994 0.0869846313621 -0.152101007166)
    (-0.254999999938 0.0833012704991 -0.16)
    (-0.254999999936 0.0783022224482 -0.167139380484)
    (-0.254999999932 0.0721393807548 -0.173302222156)
    (-0.254999999929 0.0650000002453 -0.178301270189)
    (-0.254999999924 0.0571010073837 -0.181984631039)
    (-0.25499999992 0.048682409071 -0.184240387651)
    (-0.254999999915 0.040000000157 -0.185)
    (-0.254999999873 -0.0400000001253 -0.185)
    (-0.254999999868 -0.0486824090393 -0.184240387651)
    (-0.254999999864 -0.0571010073519 -0.181984631039)
    (-0.25499999986 -0.0650000002135 -0.178301270189)
    (-0.254999999856 -0.072139380723 -0.173302222156)
    (-0.254999999853 -0.0783022224164 -0.167139380484)
    (-0.25499999985 -0.0833012704673 -0.16)
    (-0.254999999848 -0.0869846313304 -0.152101007166)
    (-0.254999999847 -0.0892403879497 -0.143682408883)
    (-0.254999999847 -0.0900000003018 -0.135)
    (-0.254999999844 -0.0950000003194 0.195)
    (-0.254999999844 -0.0941644267321 0.204550649772)
    (-0.254999999846 -0.0916830944509 0.213811107883)
    (-0.254999999848 -0.0876313975015 0.2225)
    (-0.254999999851 -0.0821324446455 0.230353318533)
    (-0.254999999854 -0.0753533187828 0.237132444372)
    (-0.254999999858 -0.0675000002223 0.242631397208)
    (-0.254999999863 -0.0588111080746 0.246683094143)
    (-0.254999999868 -0.0495506499307 0.249164426416)
    (-0.254999999873 -0.0400000001253 0.25)
    (-0.254999999915 0.040000000157 0.25)
    (-0.25499999992 0.0495506499624 0.249164426416)
    (-0.254999999925 0.0588111081063 0.246683094143)
    (-0.25499999993 0.0675000002541 0.242631397208)
    (-0.254999999934 0.0753533188146 0.237132444372)
    (-0.254999999938 0.0821324446773 0.230353318533)
    (-0.25499999994 0.0876313975333 0.2225)
    (-0.254999999943 0.0916830944827 0.213811107883)
    (-0.254999999944 0.0941644267639 0.204550649772)
    (-0.254999999944 0.0950000003511 0.195)
    (-0.254999999944 0.0950000003511 -0.135)
    (-0.254999999944 0.0941644267639 -0.144550649772)
    (-0.254999999943 0.0916830944826 -0.153811107883)
    (-0.25499999994 0.0876313975333 -0.1625)
    (-0.254999999938 0.0821324446773 -0.170353318533)
    (-0.254999999934 0.0753533188146 -0.177132444372)
    (-0.25499999993 0.0675000002541 -0.182631397208)
    (-0.254999999925 0.0588111081063 -0.186683094143)
    (-0.25499999992 0.0495506499624 -0.189164426416)
    (-0.254999999915 0.040000000157 -0.19)
    (-0.254999999873 -0.0400000001253 -0.19)
    (-0.254999999868 -0.0495506499307 -0.189164426416)
    (-0.254999999863 -0.0588111080746 -0.186683094143)
    (-0.254999999858 -0.0675000002223 -0.182631397208)
    (-0.254999999854 -0.0753533187828 -0.177132444372)
    (-0.254999999851 -0.0821324446455 -0.170353318533)
    (-0.254999999848 -0.0876313975015 -0.1625)
    (-0.254999999846 -0.0916830944509 -0.153811107883)
    (-0.254999999844 -0.0941644267321 -0.144550649772)
    (-0.254999999844 -0.0950000003194 -0.135)
    (-0.261666666534 -0.0950000003229 0.195)
    (-0.261666666535 -0.0941644267356 0.204550649772)
    (-0.261666666536 -0.0916830944544 0.213811107883)
    (-0.261666666538 -0.0876313975051 0.2225)
    (-0.261666666541 -0.0821324446491 0.230353318533)
    (-0.261666666544 -0.0753533187863 0.237132444372)
    (-0.261666666549 -0.0675000002259 0.242631397208)
    (-0.261666666553 -0.0588111080781 0.246683094143)
    (-0.261666666558 -0.0495506499342 0.249164426416)
    (-0.261666666563 -0.0400000001288 0.25)
    (-0.261666666605 0.0400000001535 0.25)
    (-0.261666666611 0.0495506499589 0.249164426416)
    (-0.261666666615 0.0588111081028 0.246683094143)
    (-0.26166666662 0.0675000002506 0.242631397208)
    (-0.261666666624 0.075353318811 0.237132444372)
    (-0.261666666628 0.0821324446737 0.230353318533)
    (-0.261666666631 0.0876313975297 0.2225)
    (-0.261666666633 0.0916830944791 0.213811107883)
    (-0.261666666634 0.0941644267603 0.204550649772)
    (-0.261666666635 0.0950000003476 0.195)
    (-0.261666666635 0.0950000003476 -0.135)
    (-0.261666666634 0.0941644267603 -0.144550649772)
    (-0.261666666633 0.0916830944791 -0.153811107883)
    (-0.261666666631 0.0876313975297 -0.1625)
    (-0.261666666628 0.0821324446737 -0.170353318533)
    (-0.261666666624 0.075353318811 -0.177132444372)
    (-0.26166666662 0.0675000002506 -0.182631397208)
    (-0.261666666615 0.0588111081028 -0.186683094143)
    (-0.261666666611 0.0495506499589 -0.189164426416)
    (-0.261666666605 0.0400000001535 -0.19)
    (-0.261666666563 -0.0400000001288 -0.19)
    (-0.261666666558 -0.0495506499342 -0.189164426416)
    (-0.261666666553 -0.0588111080781 -0.186683094143)
    (-0.261666666549 -0.0675000002259 -0.182631397208)
    (-0.261666666544 -0.0753533187863 -0.177132444372)
    (-0.261666666541 -0.0821324446491 -0.170353318533)
    (-0.261666666538 -0.0876313975051 -0.1625)
    (-0.261666666536 -0.0916830944544 -0.153811107883)
    (-0.261666666535 -0.0941644267356 -0.144550649772)
    (-0.261666666534 -0.0950000003229 -0.135)
    (-0.268333333224 -0.0950000003264 0.195)
    (-0.268333333225 -0.0941644267392 0.204550649772)
    (-0.268333333226 -0.091683094458 0.213811107883)
    (-0.268333333228 -0.0876313975086 0.2225)
    (-0.268333333231 -0.0821324446526 0.230353318533)
    (-0.268333333235 -0.0753533187899 0.237132444372)
    (-0.268333333239 -0.0675000002294 0.242631397208)
    (-0.268333333243 -0.0588111080816 0.246683094143)
    (-0.268333333248 -0.0495506499377 0.249164426416)
    (-0.268333333253 -0.0400000001323 0.25)
    (-0.268333333296 0.04000000015 0.25)
    (-0.268333333301 0.0495506499554 0.249164426416)
    (-0.268333333306 0.0588111080993 0.246683094143)
    (-0.26833333331 0.067500000247 0.242631397208)
    (-0.268333333314 0.0753533188075 0.237132444372)
    (-0.268333333318 0.0821324446702 0.230353318533)
    (-0.268333333321 0.0876313975262 0.2225)
    (-0.268333333323 0.0916830944756 0.213811107883)
    (-0.268333333324 0.0941644267568 0.204550649772)
    (-0.268333333325 0.0950000003441 0.195)
    (-0.268333333325 0.0950000003441 -0.135)
    (-0.268333333324 0.0941644267568 -0.144550649772)
    (-0.268333333323 0.0916830944756 -0.153811107883)
    (-0.268333333321 0.0876313975262 -0.1625)
    (-0.268333333318 0.0821324446702 -0.170353318533)
    (-0.268333333314 0.0753533188075 -0.177132444372)
    (-0.26833333331 0.067500000247 -0.182631397208)
    (-0.268333333306 0.0588111080993 -0.186683094143)
    (-0.268333333301 0.0495506499554 -0.189164426416)
    (-0.268333333296 0.04000000015 -0.19)
    (-0.268333333253 -0.0400000001323 -0.19)
    (-0.268333333248 -0.0495506499377 -0.189164426416)
    (-0.268333333243 -0.0588111080816 -0.186683094143)
    (-0.268333333239 -0.0675000002294 -0.182631397208)
    (-0.268333333235 -0.0753533187899 -0.177132444372)
    (-0.268333333231 -0.0821324446526 -0.170353318533)
    (-0.268333333228 -0.0876313975086 -0.1625)
    (-0.268333333226 -0.091683094458 -0.153811107883)
    (-0.268333333225 -0.0941644267392 -0.144550649772)
    (-0.268333333224 -0.0950000003264 -0.135)
    (-0.274999999914 -0.09500000033 0.195)
    (-0.274999999915 -0.0941644267427 0.204550649772)
    (-0.274999999916 -0.0916830944615 0.213811107883)
    (-0.274999999918 -0.0876313975121 0.2225)
    (-0.274999999921 -0.0821324446561 0.230353318533)
    (-0.274999999925 -0.0753533187934 0.237132444372)
    (-0.274999999929 -0.0675000002329 0.242631397208)
    (-0.274999999934 -0.0588111080852 0.246683094143)
    (-0.274999999939 -0.0495506499413 0.249164426416)
    (-0.274999999944 -0.0400000001359 0.25)
    (-0.274999999986 0.0400000001465 0.25)
    (-0.274999999991 0.0495506499518 0.249164426416)
    (-0.274999999996 0.0588111080958 0.246683094143)
    (-0.275 0.0675000002435 0.242631397208)
    (-0.275000000005 0.075353318804 0.237132444372)
    (-0.275000000008 0.0821324446667 0.230353318533)
    (-0.275000000011 0.0876313975227 0.2225)
    (-0.275000000013 0.0916830944721 0.213811107883)
    (-0.275000000015 0.0941644267533 0.204550649772)
    (-0.275000000015 0.0950000003406 0.195)
    (-0.275000000015 0.0950000003406 -0.135)
    (-0.275000000015 0.0941644267533 -0.144550649772)
    (-0.275000000013 0.0916830944721 -0.153811107883)
    (-0.275000000011 0.0876313975227 -0.1625)
    (-0.275000000008 0.0821324446667 -0.170353318533)
    (-0.275000000005 0.075353318804 -0.177132444372)
    (-0.275 0.0675000002435 -0.182631397208)
    (-0.274999999996 0.0588111080957 -0.186683094143)
    (-0.274999999991 0.0495506499518 -0.189164426416)
    (-0.274999999986 0.0400000001465 -0.19)
    (-0.274999999944 -0.0400000001359 -0.19)
    (-0.274999999939 -0.0495506499413 -0.189164426416)
    (-0.274999999934 -0.0588111080852 -0.186683094143)
    (-0.274999999929 -0.0675000002329 -0.182631397208)
    (-0.274999999925 -0.0753533187934 -0.177132444372)
    (-0.274999999921 -0.0821324446561 -0.170353318533)
    (-0.274999999918 -0.0876313975121 -0.1625)
    (-0.274999999916 -0.0916830944615 -0.153811107883)
    (-0.274999999915 -0.0941644267427 -0.144550649772)
    (-0.274999999914 -0.09500000033 -0.135)
    (-0.281666666605 -0.0950000003335 0.195)
    (-0.281666666605 -0.0941644267462 0.204550649772)
    (-0.281666666606 -0.091683094465 0.213811107883)
    (-0.281666666609 -0.0876313975156 0.2225)
    (-0.281666666611 -0.0821324446596 0.230353318533)
    (-0.281666666615 -0.0753533187969 0.237132444372)
    (-0.281666666619 -0.0675000002364 0.242631397208)
    (-0.281666666624 -0.0588111080887 0.246683094143)
    (-0.281666666629 -0.0495506499448 0.249164426416)
    (-0.281666666634 -0.0400000001394 0.25)
    (-0.281666666676 0.0400000001429 0.25)
    (-0.281666666681 0.0495506499483 0.249164426416)
    (-0.281666666686 0.0588111080922 0.246683094143)
    (-0.281666666691 0.06750000024 0.242631397208)
    (-0.281666666695 0.0753533188005 0.237132444372)
    (-0.281666666698 0.0821324446632 0.230353318533)
    (-0.281666666701 0.0876313975192 0.2225)
    (-0.281666666703 0.0916830944685 0.213811107883)
    (-0.281666666705 0.0941644267497 0.204550649772)
    (-0.281666666705 0.095000000337 0.195)
    (-0.281666666705 0.095000000337 -0.135)
    (-0.281666666705 0.0941644267497 -0.144550649772)
    (-0.281666666703 0.0916830944685 -0.153811107883)
    (-0.281666666701 0.0876313975192 -0.1625)
    (-0.281666666698 0.0821324446632 -0.170353318533)
    (-0.281666666695 0.0753533188004 -0.177132444372)
    (-0.281666666691 0.06750000024 -0.182631397208)
    (-0.281666666686 0.0588111080922 -0.186683094143)
    (-0.281666666681 0.0495506499483 -0.189164426416)
    (-0.281666666676 0.0400000001429 -0.19)
    (-0.281666666634 -0.0400000001394 -0.19)
    (-0.281666666629 -0.0495506499448 -0.189164426416)
    (-0.281666666624 -0.0588111080887 -0.186683094143)
    (-0.281666666619 -0.0675000002365 -0.182631397208)
    (-0.281666666615 -0.0753533187969 -0.177132444372)
    (-0.281666666611 -0.0821324446596 -0.170353318533)
    (-0.281666666609 -0.0876313975156 -0.1625)
    (-0.281666666606 -0.091683094465 -0.153811107883)
    (-0.281666666605 -0.0941644267462 -0.144550649772)
    (-0.281666666605 -0.0950000003335 -0.135)
    (-0.288333333295 -0.095000000337 0.195)
    (-0.288333333295 -0.0941644267497 0.204550649772)
    (-0.288333333297 -0.0916830944685 0.213811107883)
    (-0.288333333299 -0.0876313975192 0.2225)
    (-0.288333333302 -0.0821324446632 0.230353318533)
    (-0.288333333305 -0.0753533188004 0.237132444372)
    (-0.288333333309 -0.06750000024 0.242631397208)
    (-0.288333333314 -0.0588111080922 0.246683094143)
    (-0.288333333319 -0.0495506499483 0.249164426416)
    (-0.288333333324 -0.0400000001429 0.25)
    (-0.288333333366 0.0400000001394 0.25)
    (-0.288333333371 0.0495506499448 0.249164426416)
    (-0.288333333376 0.0588111080887 0.246683094143)