/*--------------------------------*- C++ -*----------------------------------*\
| =========                 |                                                 |
| \\      /  F ield         | foam-extend: Open Source CFD                    |
|  \\    /   O peration     | Version:     4.0                                |
|   \\  /    A nd           | Web:         http://www.extend-project.de       |
|    \\/     M anipulation  | For copyright notice see file Copyright         |
\*---------------------------------------------------------------------------*/
FoamFile
{
    version     2.0;
    format      ascii;
    class       featureEdgeMesh;
    object      coil1;
}
// * * * * * * * * * * * * * * * * * * * * * * * * * * * * * * * * * * * * * //

// points:

1440
(
    (0.0841987298108 0.245836477965 0.195)
    (0.0843302985291 0.24576051673 0.196736481777)
    (0.0847210070351 0.245534941069 0.198420201433)
    (0.0853589838486 0.245166604984 0.2)
    (0.0862248443669 0.244666700181 0.201427876097)
    (0.0872922798564 0.244050416013 0.202660444431)
    (0.0885288568297 0.243336477965 0.203660254038)
    (0.0898970025214 0.242546578682 0.204396926208)
    (0.0913551465168 0.241704718853 0.20484807753)
    (0.0928589838486 0.240836477965 0.205)
    (0.162141016151 0.200836477965 0.205)
    (0.163644853483 0.199968237077 0.20484807753)
    (0.165102997479 0.199126377248 0.204396926208)
    (0.16647114317 0.198336477965 0.203660254038)
    (0.167707720144 0.197622539917 0.202660444431)
    (0.168775155633 0.197006255749 0.201427876097)
    (0.169641016151 0.196506350946 0.2)
    (0.170278992965 0.196138014861 0.198420201433)
    (0.170669701471 0.1959124392 0.196736481777)
    (0.170801270189 0.195836477965 0.195)
    (0.170801270189 0.195836477965 -0.135)
    (0.170669701471 0.1959124392 -0.136736481777)
    (0.170278992965 0.196138014861 -0.138420201433)
    (0.169641016151 0.196506350946 -0.14)
    (0.168775155633 0.197006255749 -0.141427876097)
    (0.167707720144 0.197622539917 -0.142660444431)
    (0.16647114317 0.198336477965 -0.143660254038)
    (0.165102997479 0.199126377248 -0.144396926208)
    (0.163644853483 0.199968237077 -0.14484807753)
    (0.162141016151 0.200836477965 -0.145)
    (0.0928589838486 0.240836477965 -0.145)
    (0.0913551465168 0.241704718853 -0.14484807753)
    (0.0898970025214 0.242546578682 -0.144396926208)
    (0.0885288568297 0.243336477965 -0.143660254038)
    (0.0872922798564 0.244050416013 -0.142660444431)
    (0.0862248443669 0.244666700181 -0.141427876097)
    (0.0853589838486 0.245166604984 -0.14)
    (0.0847210070351 0.245534941069 -0.138420201433)
    (0.0843302985291 0.24576051673 -0.136736481777)
    (0.0841987298108 0.245836477965 -0.135)
    (0.0798686027919 0.248336477965 0.195)
    (0.0800659558693 0.248222536113 0.197604722665)
    (0.0806520186284 0.247884172621 0.20013030215)
    (0.0816089838486 0.247331668493 0.2025)
    (0.0829077746261 0.246581811288 0.204641814145)
    (0.0845089278602 0.245657385038 0.206490666647)
    (0.0863637933202 0.244586477965 0.207990381057)
    (0.0884160118577 0.24340162904 0.209095389312)
    (0.0906032278509 0.242138839298 0.209772116295)
    (0.0928589838486 0.240836477965 0.21)
    (0.162141016151 0.200836477965 0.21)
    (0.164396772149 0.199534116633 0.209772116295)
    (0.166583988142 0.19827132689 0.209095389312)
    (0.16863620668 0.197086477965 0.207990381057)
    (0.17049107214 0.196015570892 0.206490666647)
    (0.172092225374 0.195091144642 0.204641814145)
    (0.173391016151 0.194341287437 0.2025)
    (0.174347981372 0.193788783309 0.20013030215)
    (0.174934044131 0.193450419817 0.197604722665)
    (0.175131397208 0.193336477965 0.195)
    (0.175131397208 0.193336477965 -0.135)
    (0.174934044131 0.193450419817 -0.137604722665)
    (0.174347981372 0.193788783309 -0.14013030215)
    (0.173391016151 0.194341287437 -0.1425)
    (0.172092225374 0.195091144642 -0.144641814145)
    (0.17049107214 0.196015570892 -0.146490666647)
    (0.16863620668 0.197086477965 -0.147990381057)
    (0.166583988142 0.19827132689 -0.149095389312)
    (0.164396772149 0.199534116633 -0.149772116295)
    (0.162141016151 0.200836477965 -0.15)
    (0.0928589838486 0.240836477965 -0.15)
    (0.0906032278509 0.242138839298 -0.149772116295)
    (0.0884160118577 0.24340162904 -0.149095389312)
    (0.0863637933202 0.244586477965 -0.147990381057)
    (0.0845089278602 0.245657385038 -0.146490666647)
    (0.0829077746261 0.246581811288 -0.144641814145)
    (0.0816089838486 0.247331668493 -0.1425)
    (0.0806520186284 0.247884172621 -0.14013030215)
    (0.0800659558693 0.248222536113 -0.137604722665)
    (0.0798686027919 0.248336477965 -0.135)
    (0.0755384757729 0.250836477965 0.195)
    (0.0758016132096 0.250684555495 0.198472963553)
    (0.0765830302216 0.250233404173 0.201840402867)
    (0.0778589838486 0.249496732003 0.205)
    (0.0795907048852 0.248496922396 0.207855752194)
    (0.0817255758641 0.247264354062 0.210320888862)
    (0.0841987298108 0.245836477965 0.212320508076)
    (0.0869350211941 0.244256679398 0.213793852416)
    (0.089851309185 0.242572959742 0.21469615506)
    (0.0928589838486 0.240836477965 0.215)
    (0.162141016151 0.200836477965 0.215)
    (0.165148690815 0.199099996188 0.21469615506)
    (0.168064978806 0.197416276532 0.213793852416)
    (0.170801270189 0.195836477965 0.212320508076)
    (0.173274424136 0.194408601868 0.210320888862)
    (0.175409295115 0.193176033534 0.207855752194)
    (0.177141016151 0.192176223927 0.205)
    (0.178416969778 0.191439551757 0.201840402867)
    (0.17919838679 0.190988400435 0.198472963553)
    (0.179461524227 0.190836477965 0.195)
    (0.179461524227 0.190836477965 -0.135)
    (0.17919838679 0.190988400435 -0.138472963553)
    (0.178416969778 0.191439551757 -0.141840402867)
    (0.177141016151 0.192176223927 -0.145)
    (0.175409295115 0.193176033534 -0.147855752194)
    (0.173274424136 0.194408601868 -0.150320888862)
    (0.170801270189 0.195836477965 -0.152320508076)
    (0.168064978806 0.197416276532 -0.153793852416)
    (0.165148690815 0.199099996188 -0.15469615506)
    (0.162141016151 0.200836477965 -0.155)
    (0.0928589838486 0.240836477965 -0.155)
    (0.089851309185 0.242572959742 -0.15469615506)
    (0.0869350211941 0.244256679398 -0.153793852416)
    (0.0841987298108 0.245836477965 -0.152320508076)
    (0.0817255758641 0.247264354062 -0.150320888862)
    (0.0795907048852 0.248496922396 -0.147855752194)
    (0.0778589838486 0.249496732003 -0.145)
    (0.0765830302216 0.250233404173 -0.141840402867)
    (0.0758016132096 0.250684555495 -0.138472963553)
    (0.0755384757729 0.250836477965 -0.135)
    (0.071208348754 0.253336477965 0.195)
    (0.0715372705498 0.253146574878 0.199341204442)
    (0.0725140418149 0.252582635725 0.203550503583)
    (0.0741089838486 0.251661795512 0.2075)
    (0.0762736351444 0.250412033504 0.211069690242)
    (0.078942223868 0.248871323086 0.214151111078)
    (0.0820336663013 0.247086477965 0.216650635095)
    (0.0854540305305 0.245111729757 0.21849231552)
    (0.0890993905191 0.243007080186 0.219620193825)
    (0.0928589838486 0.240836477965 0.22)
    (0.162141016151 0.200836477965 0.22)
    (0.165900609481 0.198665875744 0.219620193825)
    (0.16954596947 0.196561226173 0.21849231552)
    (0.172966333699 0.194586477965 0.216650635095)
    (0.176057776132 0.192801632844 0.214151111078)
    (0.178726364856 0.191260922426 0.211069690242)
    (0.180891016151 0.190011160418 0.2075)
    (0.182485958185 0.189090320205 0.203550503583)
    (0.18346272945 0.188526381052 0.199341204442)
    (0.183791651246 0.188336477965 0.195)
    (0.183791651246 0.188336477965 -0.135)
    (0.18346272945 0.188526381052 -0.139341204442)
    (0.182485958185 0.189090320205 -0.143550503583)
    (0.180891016151 0.190011160418 -0.1475)
    (0.178726364856 0.191260922426 -0.151069690242)
    (0.176057776132 0.192801632844 -0.154151111078)
    (0.172966333699 0.194586477965 -0.156650635095)
    (0.16954596947 0.196561226173 -0.15849231552)
    (0.165900609481 0.198665875744 -0.159620193825)
    (0.162141016151 0.200836477965 -0.16)
    (0.0928589838486 0.240836477965 -0.16)
    (0.0890993905191 0.243007080186 -0.159620193825)
    (0.0854540305305 0.245111729757 -0.15849231552)
    (0.0820336663013 0.247086477965 -0.156650635095)
    (0.078942223868 0.248871323086 -0.154151111078)
    (0.0762736351444 0.250412033504 -0.151069690242)
    (0.0741089838486 0.251661795512 -0.1475)
    (0.0725140418149 0.252582635725 -0.143550503583)
    (0.0715372705498 0.253146574878 -0.139341204442)
    (0.071208348754 0.253336477965 -0.135)
    (0.0668782217351 0.255836477965 0.195)
    (0.06727292789 0.25560859426 0.20020944533)
    (0.0684450534081 0.254931867277 0.2052606043)
    (0.0703589838486 0.253826859022 0.21)
    (0.0729565654036 0.252327144612 0.214283628291)
    (0.0761588718718 0.25047829211 0.217981333294)
    (0.0798686027919 0.248336477965 0.220980762114)
    (0.0839730398668 0.245966780115 0.223190778624)
    (0.0883474718532 0.24344120063 0.22454423259)
    (0.0928589838486 0.240836477965 0.225)
    (0.162141016151 0.200836477965 0.225)
    (0.166652528147 0.1982317553 0.22454423259)
    (0.171026960133 0.195706175815 0.223190778624)
    (0.175131397208 0.193336477965 0.220980762114)
    (0.178841128128 0.19119466382 0.217981333294)
    (0.182043434596 0.189345811318 0.214283628291)
    (0.184641016151 0.187846096908 0.21)
    (0.186554946592 0.186741088653 0.2052606043)
    (0.18772707211 0.18606436167 0.20020944533)
    (0.188121778265 0.185836477965 0.195)
    (0.188121778265 0.185836477965 -0.135)
    (0.18772707211 0.18606436167 -0.14020944533)
    (0.186554946592 0.186741088653 -0.1452606043)
    (0.184641016151 0.187846096908 -0.15)
    (0.182043434596 0.189345811318 -0.154283628291)
    (0.178841128128 0.19119466382 -0.157981333294)
    (0.175131397208 0.193336477965 -0.160980762114)
    (0.171026960133 0.195706175815 -0.163190778624)
    (0.166652528147 0.1982317553 -0.16454423259)
    (0.162141016151 0.200836477965 -0.165)
    (0.0928589838486 0.240836477965 -0.165)
    (0.0883474718532 0.24344120063 -0.16454423259)
    (0.0839730398668 0.245966780115 -0.163190778624)
    (0.0798686027919 0.248336477965 -0.160980762114)
    (0.0761588718718 0.25047829211 -0.157981333294)
    (0.0729565654036 0.252327144612 -0.154283628291)
    (0.0703589838486 0.253826859022 -0.15)
    (0.0684450534081 0.254931867277 -0.1452606043)
    (0.06727292789 0.25560859426 -0.14020944533)
    (0.0668782217351 0.255836477965 -0.135)
    (0.0625480947162 0.258336477965 0.195)
    (0.0630085852303 0.258070613643 0.201077686218)
    (0.0643760650014 0.257281098829 0.206970705016)
    (0.0666089838486 0.255991922531 0.2125)
    (0.0696394956627 0.25424225572 0.217497566339)
    (0.0733755198757 0.252085261135 0.221811555509)
    (0.0777035392824 0.249586477965 0.225310889132)
    (0.0824920492032 0.246821830473 0.227889241728)
    (0.0875955531873 0.243875321074 0.229468271355)
    (0.0928589838486 0.240836477965 0.23)
    (0.162141016151 0.200836477965 0.23)
    (0.167404446813 0.197797634856 0.229468271355)
    (0.172507950797 0.194851125457 0.227889241728)
    (0.177296460718 0.192086477965 0.225310889132)
    (0.181624480124 0.189587694796 0.221811555509)
    (0.185360504337 0.18743070021 0.217497566339)
    (0.188391016151 0.185681033399 0.2125)
    (0.190623934999 0.184391857101 0.206970705016)
    (0.19199141477 0.183602342287 0.201077686218)
    (0.192451905284 0.183336477965 0.195)
    (0.192451905284 0.183336477965 -0.135)
    (0.19199141477 0.183602342287 -0.141077686218)
    (0.190623934999 0.184391857101 -0.146970705016)
    (0.188391016151 0.185681033399 -0.1525)
    (0.185360504337 0.18743070021 -0.157497566339)
    (0.181624480124 0.189587694796 -0.161811555509)
    (0.177296460718 0.192086477965 -0.165310889132)
    (0.172507950797 0.194851125457 -0.167889241728)
    (0.167404446813 0.197797634856 -0.169468271355)
    (0.162141016151 0.200836477965 -0.17)
    (0.0928589838486 0.240836477965 -0.17)
    (0.0875955531873 0.243875321074 -0.169468271355)
    (0.0824920492032 0.246821830473 -0.167889241728)
    (0.0777035392824 0.249586477965 -0.165310889132)
    (0.0733755198757 0.252085261135 -0.161811555509)
    (0.0696394956627 0.25424225572 -0.157497566339)
    (0.0666089838486 0.255991922531 -0.1525)
    (0.0643760650014 0.257281098829 -0.146970705016)
    (0.0630085852303 0.258070613643 -0.141077686218)
    (0.0625480947162 0.258336477965 -0.135)
    (0.0582179676972 0.260836477965 0.195)
    (0.0587442425705 0.260532633025 0.201945927107)
    (0.0603070765946 0.259630330381 0.208680805733)
    (0.0628589838486 0.258156986041 0.215)
    (0.0663224259219 0.256157366827 0.220711504387)
    (0.0705921678796 0.253692230159 0.225641777725)
    (0.0755384757729 0.250836477965 0.229641016151)
    (0.0810110585396 0.247676880832 0.232587704831)
    (0.0868436345214 0.244309441518 0.23439231012)
    (0.0928589838486 0.240836477965 0.235)
    (0.162141016151 0.200836477965 0.235)
    (0.168156365479 0.197363514412 0.23439231012)
    (0.17398894146 0.193996075099 0.232587704831)
    (0.179461524227 0.190836477965 0.229641016151)
    (0.18440783212 0.187980725771 0.225641777725)
    (0.188677574078 0.185515589103 0.220711504387)
    (0.192141016151 0.183515969889 0.215)
    (0.194692923405 0.182042625549 0.208680805733)
    (0.196255757429 0.181140322905 0.201945927107)
    (0.196782032303 0.180836477965 0.195)
    (0.196782032303 0.180836477965 -0.135)
    (0.196255757429 0.181140322905 -0.141945927107)
    (0.194692923405 0.182042625549 -0.148680805733)
    (0.192141016151 0.183515969889 -0.155)
    (0.188677574078 0.185515589103 -0.160711504387)
    (0.18440783212 0.187980725771 -0.165641777725)
    (0.179461524227 0.190836477965 -0.169641016151)
    (0.17398894146 0.193996075099 -0.172587704831)
    (0.168156365479 0.197363514412 -0.17439231012)
    (0.162141016151 0.200836477965 -0.175)
    (0.0928589838486 0.240836477965 -0.175)
    (0.0868436345214 0.244309441518 -0.17439231012)
    (0.0810110585396 0.247676880832 -0.172587704831)
    (0.0755384757729 0.250836477965 -0.169641016151)
    (0.0705921678796 0.253692230159 -0.165641777725)
    (0.0663224259219 0.256157366827 -0.160711504387)
    (0.0628589838486 0.258156986041 -0.155)
    (0.0603070765946 0.259630330381 -0.148680805733)
    (0.0587442425705 0.260532633025 -0.141945927107)
    (0.0582179676972 0.260836477965 -0.135)
    (0.0538878406783 0.263336477965 0.195)
    (0.0544798999108 0.262994652408 0.202814167995)
    (0.0562380881879 0.261979561933 0.21039090645)
    (0.0591089838486 0.26032204955 0.2175)
    (0.063005356181 0.258072477935 0.223925442436)
    (0.0678088158834 0.255299199183 0.22947199994)
    (0.0733734122635 0.252086477965 0.23397114317)
    (0.079530067876 0.24853193119 0.237286167935)
    (0.0860917158555 0.244743561963 0.239316348886)
    (0.0928589838486 0.240836477965 0.24)
    (0.162141016151 0.200836477965 0.24)
    (0.168908284144 0.196929393968 0.239316348886)
    (0.175469932124 0.19314102474 0.237286167935)
    (0.181626587737 0.189586477965 0.23397114317)
    (0.187191184117 0.186373756747 0.22947199994)
    (0.191994643819 0.183600477995 0.223925442436)
    (0.195891016151 0.18135090638 0.2175)
    (0.198761911812 0.179693393997 0.21039090645)
    (0.200520100089 0.178678303522 0.202814167995)
    (0.201112159322 0.178336477965 0.195)
    (0.201112159322 0.178336477965 -0.135)
    (0.200520100089 0.178678303522 -0.142814167995)
    (0.198761911812 0.179693393997 -0.15039090645)
    (0.195891016151 0.18135090638 -0.1575)
    (0.191994643819 0.183600477995 -0.163925442436)
    (0.187191184117 0.186373756747 -0.16947199994)
    (0.181626587737 0.189586477965 -0.17397114317)
    (0.175469932124 0.19314102474 -0.177286167935)
    (0.168908284144 0.196929393968 -0.179316348886)
    (0.162141016151 0.200836477965 -0.18)
    (0.0928589838486 0.240836477965 -0.18)
    (0.0860917158555 0.244743561963 -0.179316348886)
    (0.079530067876 0.24853193119 -0.177286167935)
    (0.0733734122635 0.252086477965 -0.17397114317)
    (0.0678088158834 0.255299199183 -0.16947199994)
    (0.063005356181 0.258072477935 -0.163925442436)
    (0.0591089838486 0.26032204955 -0.1575)
    (0.0562380881879 0.261979561933 -0.15039090645)
    (0.0544798999108 0.262994652408 -0.142814167995)
    (0.0538878406783 0.263336477965 -0.135)
    (0.0495577136594 0.265836477965 0.195)
    (0.050215557251 0.26545667179 0.203682408883)
    (0.0521690997812 0.264328793485 0.212101007166)
    (0.0553589838486 0.26248711306 0.22)
    (0.0596882864402 0.259987589043 0.227139380484)
    (0.0650254638873 0.256906168207 0.233302222156)
    (0.071208348754 0.253336477965 0.238301270189)
    (0.0780490772123 0.249386981548 0.241984631039)
    (0.0853397971896 0.245177682407 0.244240387651)
    (0.0928589838486 0.240836477965 0.245)
    (0.162141016151 0.200836477965 0.245)
    (0.16966020281 0.196495273523 0.244240387651)
    (0.176950922788 0.192285974382 0.241984631039)
    (0.183791651246 0.188336477965 0.238301270189)
    (0.189974536113 0.184766787723 0.233302222156)
    (0.19531171356 0.181685366887 0.227139380484)
    (0.199641016151 0.17918584287 0.22)
    (0.202830900219 0.177344162445 0.212101007166)
    (0.204784442749 0.17621628414 0.203682408883)
    (0.205442286341 0.175836477965 0.195)
    (0.205442286341 0.175836477965 -0.135)
    (0.204784442749 0.17621628414 -0.143682408883)
    (0.202830900219 0.177344162445 -0.152101007166)
    (0.199641016151 0.17918584287 -0.16)
    (0.19531171356 0.181685366887 -0.167139380484)
    (0.189974536113 0.184766787723 -0.173302222156)
    (0.183791651246 0.188336477965 -0.178301270189)
    (0.176950922788 0.192285974382 -0.181984631039)
    (0.16966020281 0.196495273523 -0.184240387651)
    (0.162141016151 0.200836477965 -0.185)
    (0.0928589838486 0.240836477965 -0.185)
    (0.0853397971896 0.245177682407 -0.184240387651)
    (0.0780490772123 0.249386981548 -0.181984631039)
    (0.071208348754 0.253336477965 -0.178301270189)
    (0.0650254638873 0.256906168207 -0.173302222156)
    (0.0596882864402 0.259987589043 -0.167139380484)
    (0.0553589838486 0.26248711306 -0.16)
    (0.0521690997812 0.264328793485 -0.152101007166)
    (0.050215557251 0.26545667179 -0.143682408883)
    (0.0495577136594 0.265836477965 -0.135)
    (0.0452275866405 0.268336477965 0.195)
    (0.0459512145912 0.267918691173 0.204550649772)
    (0.0481001113744 0.266678025037 0.213811107883)
    (0.0516089838486 0.264652176569 0.2225)
    (0.0563712166993 0.261902700151 0.230353318533)
    (0.0622421118912 0.258513137231 0.237132444372)
    (0.0690432852446 0.254586477965 0.242631397208)
    (0.0765680865487 0.250242031906 0.246683094143)
    (0.0845878785237 0.245611802851 0.249164426416)
    (0.0928589838486 0.240836477965 0.25)
    (0.162141016151 0.200836477965 0.25)
    (0.170412121476 0.196061153079 0.249164426416)
    (0.178431913451 0.191430924024 0.246683094143)
    (0.185956714755 0.187086477965 0.242631397208)
    (0.192757888109 0.183159818699 0.237132444372)
    (0.198628783301 0.179770255779 0.230353318533)
    (0.203391016151 0.177020779361 0.2225)
    (0.206899888626 0.174994930893 0.213811107883)
    (0.209048785409 0.173754264757 0.204550649772)
    (0.20977241336 0.173336477965 0.195)
    (0.20977241336 0.173336477965 -0.135)
    (0.209048785409 0.173754264757 -0.144550649772)
    (0.206899888626 0.174994930893 -0.153811107883)
    (0.203391016151 0.177020779361 -0.1625)
    (0.198628783301 0.179770255779 -0.170353318533)
    (0.192757888109 0.183159818699 -0.177132444372)
    (0.185956714755 0.187086477965 -0.182631397208)
    (0.178431913451 0.191430924024 -0.186683094143)
    (0.170412121476 0.196061153079 -0.189164426416)
    (0.162141016151 0.200836477965 -0.19)
    (0.0928589838486 0.240836477965 -0.19)
    (0.0845878785237 0.245611802851 -0.189164426416)
    (0.0765680865487 0.250242031906 -0.186683094143)
    (0.0690432852445 0.254586477965 -0.182631397208)
    (0.0622421118912 0.258513137231 -0.177132444372)
    (0.0563712166993 0.261902700151 -0.170353318533)
    (0.0516089838486 0.264652176569 -0.1625)
    (0.0481001113744 0.266678025037 -0.153811107883)
    (0.0459512145912 0.267918691173 -0.144550649772)
    (0.0452275866405 0.268336477965 -0.135)
    (0.0485609199738 0.274109980657 0.195)
    (0.0492845479246 0.273692193865 0.204550649772)
    (0.0514334447077 0.272451527729 0.213811107883)
    (0.054942317182 0.270425679261 0.2225)
    (0.0597045500327 0.267676202843 0.230353318533)
    (0.0655754452245 0.264286639923 0.237132444372)
    (0.0723766185779 0.260359980657 0.242631397208)
    (0.079901419882 0.256015534598 0.246683094143)
    (0.087921211857 0.251385305543 0.249164426416)
    (0.096192317182 0.246609980657 0.25)
    (0.165474349485 0.206609980657 0.25)
    (0.17374545481 0.201834655771 0.249164426416)
    (0.181765246785 0.197204426715 0.246683094143)
    (0.189290048089 0.192859980657 0.242631397208)
    (0.196091221442 0.188933321391 0.237132444372)
    (0.201962116634 0.185543758471 0.230353318533)
    (0.206724349485 0.182794282053 0.2225)
    (0.210233221959 0.180768433585 0.213811107883)
    (0.212382118742 0.179527767449 0.204550649772)
    (0.213105746693 0.179109980657 0.195)
    (0.213105746693 0.179109980657 -0.135)
    (0.212382118742 0.179527767449 -0.144550649772)
    (0.210233221959 0.180768433585 -0.153811107883)
    (0.206724349485 0.182794282053 -0.1625)
    (0.201962116634 0.185543758471 -0.170353318533)
    (0.196091221442 0.188933321391 -0.177132444372)
    (0.189290048089 0.192859980657 -0.182631397208)
    (0.181765246785 0.197204426715 -0.186683094143)
    (0.17374545481 0.201834655771 -0.189164426416)
    (0.165474349485 0.206609980657 -0.19)
    (0.096192317182 0.246609980657 -0.19)
    (0.087921211857 0.251385305543 -0.189164426416)
    (0.079901419882 0.256015534598 -0.186683094143)
    (0.0723766185779 0.260359980657 -0.182631397208)
    (0.0655754452245 0.264286639923 -0.177132444372)
    (0.0597045500327 0.267676202843 -0.170353318533)
    (0.054942317182 0.270425679261 -0.1625)
    (0.0514334447077 0.272451527729 -0.153811107883)
    (0.0492845479246 0.273692193865 -0.144550649772)
    (0.0485609199738 0.274109980657 -0.135)
    (0.0518942533071 0.279883483349 0.195)
    (0.0526178812579 0.279465696557 0.204550649772)
    (0.0547667780411 0.27822503042 0.213811107883)
    (0.0582756505153 0.276199181953 0.2225)
    (0.063037883366 0.273449705535 0.230353318533)
    (0.0689087785578 0.270060142615 0.237132444372)
    (0.0757099519112 0.266133483349 0.242631397208)
    (0.0832347532154 0.26178903729 0.246683094143)
    (0.0912545451904 0.257158808235 0.249164426416)
    (0.0995256505153 0.252383483349 0.25)
    (0.168807682818 0.212383483349 0.25)
    (0.177078788143 0.207608158463 0.249164426416)
    (0.185098580118 0.202977929407 0.246683094143)
    (0.192623381422 0.198633483349 0.242631397208)
    (0.199424554775 0.194706824082 0.237132444372)
    (0.205295449967 0.191317261163 0.230353318533)
    (0.210057682818 0.188567784745 0.2225)
    (0.213566555292 0.186541936277 0.213811107883)
    (0.215715452075 0.185301270141 0.204550649772)
    (0.216439080026 0.184883483349 0.195)
    (0.216439080026 0.184883483349 -0.135)
    (0.215715452075 0.185301270141 -0.144550649772)
    (0.213566555292 0.186541936277 -0.153811107883)
    (0.210057682818 0.188567784745 -0.1625)
    (0.205295449967 0.191317261163 -0.170353318533)
    (0.199424554775 0.194706824082 -0.177132444372)
    (0.192623381422 0.198633483349 -0.182631397208)
    (0.185098580118 0.202977929407 -0.186683094143)
    (0.177078788143 0.207608158463 -0.189164426416)
    (0.168807682818 0.212383483349 -0.19)
    (0.0995256505153 0.252383483349 -0.19)
    (0.0912545451904 0.257158808235 -0.189164426416)
    (0.0832347532154 0.26178903729 -0.186683094143)
    (0.0757099519112 0.266133483349 -0.182631397208)
    (0.0689087785578 0.270060142615 -0.177132444372)
    (0.063037883366 0.273449705535 -0.170353318533)
    (0.0582756505153 0.276199181953 -0.1625)
    (0.0547667780411 0.27822503042 -0.153811107883)
    (0.0526178812579 0.279465696557 -0.144550649772)
    (0.0518942533071 0.279883483349 -0.135)
    (0.0552275866405 0.285656986041 0.195)
    (0.0559512145912 0.285239199249 0.204550649772)
    (0.0581001113744 0.283998533112 0.213811107883)
    (0.0616089838486 0.281972684645 0.2225)
    (0.0663712166993 0.279223208226 0.230353318533)
    (0.0722421118912 0.275833645307 0.237132444372)
    (0.0790432852446 0.271906986041 0.242631397208)
    (0.0865680865487 0.267562539982 0.246683094143)
    (0.0945878785237 0.262932310927 0.249164426416)
    (0.102858983849 0.258156986041 0.25)
    (0.172141016151 0.218156986041 0.25)
    (0.180412121476 0.213381661155 0.249164426416)
    (0.188431913451 0.208751432099 0.246683094143)
    (0.195956714755 0.204406986041 0.242631397208)
    (0.202757888109 0.200480326774 0.237132444372)
    (0.208628783301 0.197090763855 0.230353318533)
    (0.213391016151 0.194341287437 0.2225)
    (0.216899888626 0.192315438969 0.213811107883)
    (0.219048785409 0.191074772833 0.204550649772)
    (0.21977241336 0.190656986041 0.195)
    (0.21977241336 0.190656986041 -0.135)
    (0.219048785409 0.191074772833 -0.144550649772)
    (0.216899888626 0.192315438969 -0.153811107883)
    (0.213391016151 0.194341287437 -0.1625)
    (0.208628783301 0.197090763855 -0.170353318533)
    (0.202757888109 0.200480326774 -0.177132444372)
    (0.195956714755 0.204406986041 -0.182631397208)
    (0.188431913451 0.208751432099 -0.186683094143)
    (0.180412121476 0.213381661155 -0.189164426416)
    (0.172141016151 0.218156986041 -0.19)
    (0.102858983849 0.258156986041 -0.19)
    (0.0945878785237 0.262932310927 -0.189164426416)
    (0.0865680865487 0.267562539982 -0.186683094143)
    (0.0790432852445 0.271906986041 -0.182631397208)
    (0.0722421118912 0.275833645307 -0.177132444372)
    (0.0663712166993 0.279223208226 -0.170353318533)
    (0.0616089838486 0.281972684645 -0.1625)
    (0.0581001113744 0.283998533112 -0.153811107883)
    (0.0559512145912 0.285239199249 -0.144550649772)
    (0.0552275866405 0.285656986041 -0.135)
    (0.0585609199738 0.291430488733 0.195)
    (0.0592845479246 0.29101270194 0.204550649772)
    (0.0614334447077 0.289772035804 0.213811107883)
    (0.064942317182 0.287746187337 0.2225)
    (0.0697045500327 0.284996710918 0.230353318533)
    (0.0755754452245 0.281607147999 0.237132444372)
    (0.0823766185779 0.277680488733 0.242631397208)
    (0.089901419882 0.273336042674 0.246683094143)
    (0.097921211857 0.268705813618 0.249164426416)
    (0.106192317182 0.263930488733 0.25)
    (0.175474349485 0.223930488733 0.25)
    (0.18374545481 0.219155163847 0.249164426416)
    (0.191765246785 0.214524934791 0.246683094143)
    (0.199290048089 0.210180488733 0.242631397208)
    (0.206091221442 0.206253829466 0.237132444372)
    (0.211962116634 0.202864266547 0.230353318533)
    (0.216724349485 0.200114790129 0.2225)
    (0.220233221959 0.198088941661 0.213811107883)
    (0.222382118742 0.196848275525 0.204550649772)
    (0.223105746693 0.196430488733 0.195)
    (0.223105746693 0.196430488733 -0.135)
    (0.222382118742 0.196848275525 -0.144550649772)
    (0.220233221959 0.198088941661 -0.153811107883)
    (0.216724349485 0.200114790129 -0.1625)
    (0.211962116634 0.202864266547 -0.170353318533)
    (0.206091221442 0.206253829466 -0.177132444372)
    (0.199290048089 0.210180488733 -0.182631397208)
    (0.191765246785 0.214524934791 -0.186683094143)
    (0.18374545481 0.219155163847 -0.189164426416)
    (0.175474349485 0.223930488733 -0.19)
    (0.106192317182 0.263930488733 -0.19)
    (0.097921211857 0.268705813618 -0.189164426416)
    (0.089901419882 0.273336042674 -0.186683094143)
    (0.0823766185779 0.277680488733 -0.182631397208)
    (0.0755754452245 0.281607147999 -0.177132444372)
    (0.0697045500327 0.284996710918 -0.170353318533)
    (0.064942317182 0.287746187337 -0.1625)
    (0.0614334447077 0.289772035804 -0.153811107883)
    (0.0592845479246 0.29101270194 -0.144550649772)
    (0.0585609199738 0.291430488733 -0.135)
    (0.0618942533071 0.297203991425 0.195)
    (0.0626178812579 0.296786204632 0.204550649772)
    (0.0647667780411 0.295545538496 0.213811107883)
    (0.0682756505153 0.293519690029 0.2225)
    (0.073037883366 0.29077021361 0.230353318533)
    (0.0789087785578 0.287380650691 0.237132444372)
    (0.0857099519112 0.283453991425 0.242631397208)
    (0.0932347532154 0.279109545366 0.246683094143)
    (0.10125454519 0.27447931631 0.249164426416)
    (0.109525650515 0.269703991425 0.25)
    (0.178807682818 0.229703991425 0.25)
    (0.187078788143 0.224928666539 0.249164426416)
    (0.195098580118 0.220298437483 0.246683094143)
    (0.202623381422 0.215953991425 0.242631397208)
    (0.209424554775 0.212027332158 0.237132444372)
    (0.215295449967 0.208637769239 0.230353318533)
    (0.220057682818 0.20588829282 0.2225)
    (0.223566555292 0.203862444353 0.213811107883)
    (0.225715452075 0.202621778217 0.204550649772)
    (0.226439080026 0.202203991425 0.195)
    (0.226439080026 0.202203991425 -0.135)
    (0.225715452075 0.202621778217 -0.144550649772)
    (0.223566555292 0.203862444353 -0.153811107883)
    (0.220057682818 0.20588829282 -0.1625)
    (0.215295449967 0.208637769239 -0.170353318533)
    (0.209424554775 0.212027332158 -0.177132444372)
    (0.202623381422 0.215953991425 -0.182631397208)
    (0.195098580118 0.220298437483 -0.186683094143)
    (0.187078788143 0.224928666539 -0.189164426416)
    (0.178807682818 0.229703991425 -0.19)
    (0.109525650515 0.269703991425 -0.19)
    (0.10125454519 0.27447931631 -0.189164426416)
    (0.0932347532154 0.279109545366 -0.186683094143)
    (0.0857099519112 0.283453991425 -0.182631397208)
    (0.0789087785578 0.287380650691 -0.177132444372)
    (0.073037883366 0.29077021361 -0.170353318533)