/*--------------------------------*- C++ -*----------------------------------*\
| =========                 |                                                 |
| \\      /  F ield         | foam-extend: Open Source CFD                    |
|  \\    /   O peration     | Version:     4.0                                |
|   \\  /    A nd           | Web:         http://www.foam-extend.org         |
|    \\/     M anipulation  | For copyright notice see file Copyright         |
\*---------------------------------------------------------------------------*/
FoamFile
{
    version     2.0;
    format      ascii;
    class       dictionary;
    object      transportProperties;
}
// * * * * * * * * * * * * * * * * * * * * * * * * * * * * * * * * * * * * * //

phase1
{
    transportModel    Newtonian;
//     nu                nu  [ 0 2 -1 0 0 0 0 ] 3.3858268e-7; // SiLiquid
//     nu                nu  [ 0 2 -1 0 0 0 0 ] 3.3168750e-7; // GaInSi
//     nu                nu  [ 0 2 -1 0 0 0 0 ] 4.4680851e-7; // Woods metal
    nu                nu  [ 0 2 -1 0 0 0 0 ] 3.969e-7;     // Copper 1360K
//     rho               rho [ 1 -3  0 0 0 0 0 ] 2580;        // SiLiquid
//     rho               rho [ 1 -3  0 0 0 0 0 ] 6400;        // GaInSi
//     rho               rho [ 1 -3  0 0 0 0 0 ] 9400;        // Woods metal
    rho               rho [ 1 -3  0 0 0 0 0 ] 7992;        // Copper 1360K
}

phase2
{
    transportModel    Newtonian;
    nu                nu  [ 0 2 -1 0 0 0 0 ] 0;
    rho               rho [ 1 -3 0 0 0 0 0 ] 0;
}

// sigma                 sigma [ 1 0 -2 0 0 0 0 ] 0.73312; // SiLiquid
// sigma                 sigma [ 1 0 -2 0 0 0 0 ] 0.58684; // GaInSi
// sigma                 sigma [ 1 0 -2 0 0 0 0 ] 0.4;     // Woods metal???
sigma                 sigma [ 1 0 -2 0 0 0 0 ] 1.311;   // Copper 1360K

// ************************************************************************* //

