/*--------------------------------*- C++ -*----------------------------------*\
| =========                 |                                                 |
| \\      /  F ield         | foam-extend: Open Source CFD                    |
|  \\    /   O peration     | Version:     4.0                                |
|   \\  /    A nd           | Web:         http://www.foam-extend.org         |
|    \\/     M anipulation  | For copyright notice see file Copyright         |
\*---------------------------------------------------------------------------*/
FoamFile
{
    version     2.0;
    format      ascii;
    class       dictionary;
    object      transportProperties;
}
// * * * * * * * * * * * * * * * * * * * * * * * * * * * * * * * * * * * * * //

twoPhase
{
    transportModel  twoPhase;
    phase1          phase1;
    phase2          phase2;
}

phase1
{
    transportModel  Newtonian;
//     nu                nu  [ 0 2 -1 0 0 0 0 ] 3.3858268e-7; // SiLiquid
//     nu                nu  [ 0 2 -1 0 0 0 0 ] 3.3168750e-7; // GaInSi
    nu                nu  [ 0 2 -1 0 0 0 0 ] 4.4680851e-7; // Woods metal
//     rho               rho [ 1 -3  0 0 0 0 0 ] 2580;        // SiLiquid
//     rho               rho [ 1 -3  0 0 0 0 0 ] 6400;        // GaInSi
    rho               rho [ 1 -3  0 0 0 0 0 ] 9400;        // Woods metal
    sigmae            sigmae [-1 -3 3 0 0 2 0] 1.0e+6;     // Woods metal
}

phase2
{
    transportModel  Newtonian;
    nu              nu [ 0 2 -1 0 0 0 0 ] 1.48e-05;
//     nu              nu [ 0 2 -1 0 0 0 0 ] 1.0e-03;
    rho             rho [ 1 -3 0 0 0 0 0 ] 1.0;
    sigmae          sigmae [-1 -3 3 0 0 2 0] 1.0;
}

// sigma                 sigma [ 1 0 -2 0 0 0 0 ] 0.73312; // SiLiquid
// sigma                 sigma [ 1 0 -2 0 0 0 0 ] 0.58684; // GaInSi
// sigma                 sigma [ 1 0 -2 0 0 0 0 ] 0.42;     // Woods metal Spitans(2010)
sigma                 sigma [ 1 0 -2 0 0 0 0 ] 1.0;     // Woods metal Vencels(2017)

// ************************************************************************* //

