/*--------------------------------*- C++ -*----------------------------------*\
| =========                 |                                                 |
| \\      /  F ield         | foam-extend: Open Source CFD                    |
|  \\    /   O peration     | Version:     4.0                                |
|   \\  /    A nd           | Web:         http://www.foam-extend.org         |
|    \\/     M anipulation  | For copyright notice see file Copyright         |
\*---------------------------------------------------------------------------*/
FoamFile
{
    version     2.0;
    format      ascii;
    class       dictionary;
    object      controlDict;
}
// * * * * * * * * * * * * * * * * * * * * * * * * * * * * * * * * * * * * * //

applicationClass    interTrackFoamUser;

startFrom           latestTime;

startTime           0;

stopAt              endTime;

endTime             1200.0;

deltaT              0.001;

adjustTimeStep      yes;

maxCo               1;

maxDeltaT           0.1;

writeControl        adjustableRunTime;
// writeControl        timeStep;

writeInterval       0.1;
// writeInterval       1;

cycleWrite          0;

writeFormat         binary;

timeFormat          general;

timePrecision       6;

runTimeModifiable   yes;

functions
{
    compute_magU
    {
        functionObjectLibs
        (
            "libswakFunctionObjects.so"
        );

        type              expressionField;

        enabled           true;

        outputControl     timeStep;

        outputInterval    1;

        autowrite         false;

        verbose           true;

        fieldName         magU;

        expression        "mag(U)";

        dimension         [0 1 -1 0 0 0 0];
    }

    trackedSurface
    {
        functionObjectLibs
        (
            "libsimpleFunctionObjects.so"
        );

        type              patchAverage;

        enabled           true;

        outputControlMode outputTime;

        verbose           true;

        patches
        (
            trackedSurface
        );

        fields
        (
            c
            magU
        );
    }
}

// ************************************************************************* //

