/*--------------------------------*- C++ -*----------------------------------*\
| =========                 |                                                 |
| \\      /  F ield         | foam-extend: Open Source CFD                    |
|  \\    /   O peration     | Version:     4.0                                |
|   \\  /    A nd           | Web:         http://www.foam-extend.org         |
|    \\/     M anipulation  | For copyright notice see file Copyright         |
\*---------------------------------------------------------------------------*/
FoamFile
{
    version     2.0;
    format      ascii;
    class       dictionary;
    location    "system";
    object      fvSolution;
}
// * * * * * * * * * * * * * * * * * * * * * * * * * * * * * * * * * * * * * //

solvers
{
    psi
    {
        solver          PCG;
//         solver          deflatedPCG;
        preconditioner  DIC;
        tolerance       1e-12;
        relTol          0;
        maxIter         1000;
    }
}

SIMPLE
{
    nNonOrthogonalCorrectors 100;

    psiRefCell 150;
    psiRefValue 0;
}

// ************************************************************************* //
