/*--------------------------------*- C++ -*----------------------------------*\
| =========                 |                                                 |
| \\      /  F ield         | foam-extend: Open Source CFD                    |
|  \\    /   O peration     | Version:     4.0                                |
|   \\  /    A nd           | Web:         http://www.foam-extend.org         |
|    \\/     M anipulation  | For copyright notice see file Copyright         |
\*---------------------------------------------------------------------------*/
FoamFile
{
    version     2.0;
    format      ascii;
    class       dictionary;
    object      createPatchDict;
}
// * * * * * * * * * * * * * * * * * * * * * * * * * * * * * * * * * * * * * //

matchTolerance 1e-12;

pointSync true;

patchInfo
(
    {
        name             trackedSurface;
        constructFrom    patches;

        patches          (liquid);

        dictionary
        {
            type         patch;
        }
    }

    {
        name             right;
        constructFrom    patches;

        patches          (top bottom mantle);

        dictionary
        {
            type         patch;
        }
    }

    {
        name             top;
        constructFrom    patches;

        patches          (front);

        dictionary
        {
            type         patch;
        }
    }

    {
        name             bottom;
        constructFrom    patches;

        patches          (back);

        dictionary
        {
            type         patch;
        }
    }
);

// OpenFOAM syntax
patches
(
);

// ************************************************************************* //
