/*--------------------------------*- C++ -*----------------------------------*\
| =========                 |                                                 |
| \\      /  F ield         | foam-extend: Open Source CFD                    |
|  \\    /   O peration     | Version:     4.0                                |
|   \\  /    A nd           | Web:         http://www.foam-extend.org         |
|    \\/     M anipulation  | For copyright notice see file Copyright         |
\*---------------------------------------------------------------------------*/
FoamFile
{
    version     2.0;
    format      ascii;
    class       dictionary;
    object      eddyCurrentProperties;
}
// * * * * * * * * * * * * * * * * * * * * * * * * * * * * * * * * * * * * * //

regions
{
    CONDUCTOR               region_conductor;
    BUFFER                  region_buffer;
}

settings
{
    biotSavart              true;
    lorentzForce            true;
    magneticPressure        false;
    jouleHeat               true;
}

storage
{
    "(BRe|BIm)"
    {
        write               true;
    }

    "F"
    {
        write               false;
    }

    region_conductor
    {
        "(jRe|jIm)"
        {
            write           true;
        }
	"Q"
	{
		write 	true;
	}
    }
}

// ************************************************************************* //
