/*--------------------------------*- C++ -*----------------------------------*\
| =========                 |                                                 |
| \\      /  F ield         | foam-extend: Open Source CFD                    |
|  \\    /   O peration     | Version:     3.1                                |
|   \\  /    A nd           | Web:         http://www.extend-project.de       |
|    \\/     M anipulation  |                                                 |
\*---------------------------------------------------------------------------*/
FoamFile
{
    version     2.0;
    format      ascii;
    class       dictionary;
    object      eddyCurrentProperties;
}
// * * * * * * * * * * * * * * * * * * * * * * * * * * * * * * * * * * * * * //

regions
{
    fluidA       region_fluid;
    dynamic      region_dynamic;
    conductor    region_conductor;
}

patches
{
    interface    region_conductor_to_region_space;
}

frequency        frequency [ 0 0 -1 0 0 0 0 ] 330.0;

// ************************************************************************* //
