/*--------------------------------*- C++ -*----------------------------------*\
| =========                 |                                                 |
| \\      /  F ield         | foam-extend: Open Source CFD                    |
|  \\    /   O peration     | Version:     3.1                                |
|   \\  /    A nd           | Web:         http://www.extend-project.de       |
|    \\/     M anipulation  |                                                 |
\*---------------------------------------------------------------------------*/
FoamFile
{
    version     2.0;
    format      ascii;
    class       volScalarField;
    object      p;
}
// * * * * * * * * * * * * * * * * * * * * * * * * * * * * * * * * * * * * * //

dimensions      [1 -1 -2 0 0 0 0];

internalField   uniform 0;

boundaryField
{
    axis
    {
        type            symmetryPlane;
    }
    trackedSurface
    {
        type            fixedValue;
        value           uniform 0;
    }
    fixedWallBottom
    {
        type            fixedGradient;
        gradient        uniform 0;
    }
    fixedWallSide
    {
        type            fixedGradient;
        gradient        uniform 0;
    }
    front
    {
        type            wedge;
    }
    back
    {
        type            wedge;
    }
    "procBoundary.*"
    {
        type            processor;
        value           uniform 0;
    }
}

// ************************************************************************* //
