/*--------------------------------*- C++ -*----------------------------------*\
| =========                 |                                                 |
| \\      /  F ield         | foam-extend: Open Source CFD                    |
|  \\    /   O peration     | Version:     4.1                                |
|   \\  /    A nd           | Web:         http://www.foam-extend.org         |
|    \\/     M anipulation  |                                                 |
\*---------------------------------------------------------------------------*/
FoamFile
{
    version     2.0;
    format      binary;
    class       dictionary;
    location    "constant/faMesh";
    object      faMeshDefinition;
}
// * * * * * * * * * * * * * * * * * * * * * * * * * * * * * * * * * * * * * //

polyMeshPatches 1 ( triangulatedFaces );

boundary
{
    sideWall
    {
        type            patch;
        ownerPolyPatch  triangulatedFaces;
        neighbourPolyPatch sideWall;
    }
}


// ************************************************************************* //
