/*--------------------------------*- C++ -*----------------------------------*\
| =========                 |                                                 |
| \\      /  F ield         | OpenFOAM: The Open Source CFD Toolbox           |
|  \\    /   O peration     | Version:  2.3.x                                 |
|   \\  /    A nd           | Web:      www.OpenFOAM.org                      |
|    \\/     M anipulation  |                                                 |
\*---------------------------------------------------------------------------*/
FoamFile
{
    version     2.0;
    format      ascii;
    class       featureEdgeMesh;
    location    "constant/triSurface";
    object      geometry_boundary_movingWall.eMesh;
}
// * * * * * * * * * * * * * * * * * * * * * * * * * * * * * * * * * * * * * //


// points:

52
(
(0.0297832 0.074948698 0)
(0.030552899 0.074795596 0)
(0.0312961 0.074543297 0)
(0.028999999 0.075000003 0)
(0.033760101 -0.072652601 0)
(0.033242598 -0.073242597 0)
(0.032652602 -0.0737601 0)
(0.032000002 0.074196197 0)
(-0.028999999 0.075000003 0)
(0.034196202 -0.071999997 0)
(-0.035 -0.068999998 0)
(-0.035 0.068999998 0)
(0.034543298 -0.071296103 0)
(-0.030552899 0.074795596 0)
(-0.0297832 0.074948698 0)
(0.032000002 -0.074196197 0)
(0.0312961 -0.074543297 0)
(0.030552899 -0.074795596 0)
(-0.034795601 0.0705529 0)
(-0.034543298 0.071296103 0)
(-0.034196202 0.071999997 0)
(0.0297832 -0.074948698 0)
(-0.032000002 0.074196197 0)
(-0.0312961 0.074543297 0)
(0.034948699 -0.069783203 0)
(0.034795601 -0.0705529 0)
(-0.032652602 0.0737601 0)
(-0.034948699 0.069783203 0)
(0.028999999 -0.075000003 0)
(-0.033760101 0.072652601 0)
(0.035 -0.068999998 0)
(-0.033242598 0.073242597 0)
(-0.028999999 -0.075000003 0)
(-0.030552899 -0.074795596 0)
(-0.0312961 -0.074543297 0)
(-0.032000002 -0.074196197 0)
(-0.0297832 -0.074948698 0)
(-0.032652602 -0.0737601 0)
(-0.033242598 -0.073242597 0)
(-0.033760101 -0.072652601 0)
(-0.034196202 -0.071999997 0)
(-0.034543298 -0.071296103 0)
(-0.034795601 -0.0705529 0)
(-0.034948699 -0.069783203 0)
(0.035 0.068999998 0)
(0.034795601 0.0705529 0)
(0.034948699 0.069783203 0)
(0.034196202 0.071999997 0)
(0.034543298 0.071296103 0)
(0.033242598 0.073242597 0)
(0.033760101 0.072652601 0)
(0.032652602 0.0737601 0)
)


// edges:

52
(
(0 1)
(1 2)
(3 0)
(4 5)
(5 6)
(2 7)
(8 3)
(9 4)
(10 11)
(12 9)
(13 14)
(14 8)
(15 16)
(16 17)
(6 15)
(18 19)
(19 20)
(17 21)
(22 23)
(23 13)
(24 25)
(25 12)
(26 22)
(27 18)
(11 27)
(21 28)
(20 29)
(30 24)
(31 26)
(29 31)
(28 32)
(33 34)
(34 35)
(36 33)
(32 36)
(37 38)
(38 39)
(35 37)
(39 40)
(40 41)
(41 42)
(42 43)
(43 10)
(44 30)
(45 46)
(46 44)
(47 48)
(48 45)
(49 50)
(50 47)
(7 51)
(51 49)
)

// * * * * * * * * * * * * * * * * * * * * * * * * * * * * * * * * * * * * * //


// ************************************************************************* //
