/*--------------------------------*- C++ -*----------------------------------*\
| =========                 |                                                 |
| \\      /  F ield         | OpenFOAM: The Open Source CFD Toolbox           |
|  \\    /   O peration     | Version:  2.3.x                                 |
|   \\  /    A nd           | Web:      www.OpenFOAM.org                      |
|    \\/     M anipulation  |                                                 |
\*---------------------------------------------------------------------------*/
FoamFile
{
    version     2.0;
    format      ascii;
    class       featureEdgeMesh;
    location    "constant/triSurface";
    object      geometry_fluid.eMesh;
}
// * * * * * * * * * * * * * * * * * * * * * * * * * * * * * * * * * * * * * //


// points:

108
(
(0.045000002 -0.075000003 -0.00050000002)
(0.045000002 -0.075000003 0)
(0.045000002 0.075000003 0)
(0.045000002 0.075000003 -0.00050000002)
(0.0312961 0.074543297 0.02)
(0.030552899 0.074795596 0.02)
(0.0297832 0.074948698 0.02)
(0.028999999 0.075000003 0.02)
(0.032652602 -0.0737601 0.02)
(0.033242598 -0.073242597 0.02)
(0.033760101 -0.072652601 0.02)
(0.032000002 0.074196197 0.02)
(-0.028999999 0.075000003 0.02)
(0.034196202 -0.071999997 0.02)
(-0.035 0.068999998 0.02)
(-0.035 -0.068999998 0.02)
(0.034543298 -0.071296103 0.02)
(-0.0297832 0.074948698 0.02)
(-0.030552899 0.074795596 0.02)
(0.030552899 -0.074795596 0.02)
(0.0312961 -0.074543297 0.02)
(0.032000002 -0.074196197 0.02)
(-0.034196202 0.071999997 0.02)
(-0.034543298 0.071296103 0.02)
(-0.034795601 0.0705529 0.02)
(0.0297832 -0.074948698 0.02)
(-0.0312961 0.074543297 0.02)
(-0.032000002 0.074196197 0.02)
(0.034795601 -0.0705529 0.02)
(0.034948699 -0.069783203 0.02)
(-0.032652602 0.0737601 0.02)
(-0.034948699 0.069783203 0.02)
(0.028999999 -0.075000003 0.02)
(-0.033760101 0.072652601 0.02)
(0.035 -0.068999998 0.02)
(-0.033242598 0.073242597 0.02)
(-0.028999999 -0.075000003 0.02)
(-0.032000002 -0.074196197 0.02)
(-0.0312961 -0.074543297 0.02)
(-0.030552899 -0.074795596 0.02)
(-0.0297832 -0.074948698 0.02)
(-0.033760101 -0.072652601 0.02)
(-0.033242598 -0.073242597 0.02)
(-0.032652602 -0.0737601 0.02)
(-0.034196202 -0.071999997 0.02)
(-0.034795601 -0.0705529 0.02)
(-0.034543298 -0.071296103 0.02)
(-0.034948699 -0.069783203 0.02)
(0.035 0.068999998 0.02)
(0.034948699 0.069783203 0.02)
(0.034795601 0.0705529 0.02)
(0.034543298 0.071296103 0.02)
(0.034196202 0.071999997 0.02)
(0.033760101 0.072652601 0.02)
(0.033242598 0.073242597 0.02)
(0.032652602 0.0737601 0.02)
(-0.035 -0.068999998 -0.00050000002)
(-0.034948699 -0.069783203 -0.00050000002)
(-0.034795601 -0.0705529 -0.00050000002)
(-0.034543298 -0.071296103 -0.00050000002)
(-0.034196202 -0.071999997 -0.00050000002)
(-0.033760101 -0.072652601 -0.00050000002)
(-0.033242598 -0.073242597 -0.00050000002)
(-0.032652602 -0.0737601 -0.00050000002)
(-0.032000002 -0.074196197 -0.00050000002)
(-0.0312961 -0.074543297 -0.00050000002)
(-0.030552899 -0.074795596 -0.00050000002)
(-0.0297832 -0.074948698 -0.00050000002)
(-0.028999999 -0.075000003 -0.00050000002)
(0.028999999 -0.075000003 0)
(0.028999999 0.075000003 0)
(-0.028999999 0.075000003 -0.00050000002)
(-0.0297832 0.074948698 -0.00050000002)
(-0.030552899 0.074795596 -0.00050000002)
(-0.0312961 0.074543297 -0.00050000002)
(-0.032000002 0.074196197 -0.00050000002)
(-0.032652602 0.0737601 -0.00050000002)
(-0.033242598 0.073242597 -0.00050000002)
(-0.033760101 0.072652601 -0.00050000002)
(-0.034196202 0.071999997 -0.00050000002)
(-0.034543298 0.071296103 -0.00050000002)
(-0.034795601 0.0705529 -0.00050000002)
(-0.034948699 0.069783203 -0.00050000002)
(-0.035 0.068999998 -0.00050000002)
(0.0297832 -0.074948698 0)
(0.030552899 -0.074795596 0)
(0.0312961 -0.074543297 0)
(0.032000002 -0.074196197 0)
(0.032652602 -0.0737601 0)
(0.033242598 -0.073242597 0)
(0.033760101 -0.072652601 0)
(0.034196202 -0.071999997 0)
(0.034543298 -0.071296103 0)
(0.034795601 -0.0705529 0)
(0.034948699 -0.069783203 0)
(0.035 -0.068999998 0)
(0.035 0.068999998 0)
(0.034948699 0.069783203 0)
(0.034795601 0.0705529 0)
(0.034543298 0.071296103 0)
(0.034196202 0.071999997 0)
(0.033760101 0.072652601 0)
(0.033242598 0.073242597 0)
(0.032652602 0.0737601 0)
(0.032000002 0.074196197 0)
(0.0312961 0.074543297 0)
(0.030552899 0.074795596 0)
(0.0297832 0.074948698 0)
)


// edges:

110
(
(4 5)
(5 6)
(6 7)
(8 9)
(9 10)
(11 4)
(7 12)
(10 13)
(14 15)
(13 16)
(12 17)
(17 18)
(19 20)
(20 21)
(21 8)
(22 23)
(23 24)
(25 19)
(18 26)
(26 27)
(16 28)
(28 29)
(27 30)
(24 31)
(31 14)
(32 25)
(33 22)
(29 34)
(30 35)
(35 33)
(36 32)
(37 38)
(38 39)
(39 40)
(40 36)
(41 42)
(42 43)
(43 37)
(44 41)
(45 46)
(46 44)
(47 45)
(15 47)
(34 48)
(48 49)
(49 50)
(50 51)
(51 52)
(52 53)
(53 54)
(54 55)
(55 11)
(56 57)
(57 58)
(58 59)
(59 60)
(60 61)
(61 62)
(62 63)
(63 64)
(64 65)
(65 66)
(66 67)
(67 68)
(68 0)
(1 69)
(0 1)
(1 2)
(2 70)
(3 71)
(2 3)
(71 72)
(72 73)
(73 74)
(74 75)
(75 76)
(76 77)
(77 78)
(78 79)
(79 80)
(80 81)
(81 82)
(82 83)
(83 56)
(3 0)
(69 84)
(84 85)
(85 86)
(86 87)
(87 88)
(88 89)
(89 90)
(90 91)
(91 92)
(92 93)
(93 94)
(94 95)
(95 96)
(96 97)
(97 98)
(98 99)
(99 100)
(100 101)
(101 102)
(102 103)
(103 104)
(104 105)
(105 106)
(106 107)
(107 70)
)

// * * * * * * * * * * * * * * * * * * * * * * * * * * * * * * * * * * * * * //


// ************************************************************************* //
