/*--------------------------------*- C++ -*----------------------------------*\
| =========                 |                                                 |
| \\      /  F ield         | OpenFOAM: The Open Source CFD Toolbox           |
|  \\    /   O peration     | Version:  2.3.x                                 |
|   \\  /    A nd           | Web:      www.OpenFOAM.org                      |
|    \\/     M anipulation  |                                                 |
\*---------------------------------------------------------------------------*/
FoamFile
{
    version     2.0;
    format      ascii;
    class       featureEdgeMesh;
    location    "constant/triSurface";
    object      geometry_free_dynamic.eMesh;
}
// * * * * * * * * * * * * * * * * * * * * * * * * * * * * * * * * * * * * * //


// points:

104
(
(-0.032652602 -0.0737601 0.02)
(-0.033242598 -0.073242597 0.02)
(-0.032000002 -0.074196197 0.02)
(-0.0312961 0.074543297 0.02)
(-0.030552899 0.074795596 0.02)
(-0.0297832 0.074948698 0.02)
(-0.028999999 0.075000003 0.02)
(-0.033760101 -0.072652601 0.02)
(-0.034196202 -0.071999997 0.02)
(0.035 0.068999998 0.02)
(0.035 -0.068999998 0.02)
(-0.035 -0.068999998 0.02)
(-0.035 0.068999998 0.02)
(0.028999999 0.075000003 0.02)
(-0.034543298 -0.071296103 0.02)
(-0.0312961 -0.074543297 0.02)
(-0.030552899 -0.074795596 0.02)
(0.0297832 0.074948698 0.02)
(0.030552899 0.074795596 0.02)
(0.034795601 0.0705529 0.02)
(0.034948699 0.069783203 0.02)
(0.034543298 0.071296103 0.02)
(-0.0297832 -0.074948698 0.02)
(-0.034795601 -0.0705529 0.02)
(-0.034948699 -0.069783203 0.02)
(0.0312961 0.074543297 0.02)
(0.032000002 0.074196197 0.02)
(-0.028999999 -0.075000003 0.02)
(0.032652602 0.0737601 0.02)
(0.033242598 0.073242597 0.02)
(0.033760101 0.072652601 0.02)
(0.034196202 0.071999997 0.02)
(0.028999999 -0.075000003 0.02)
(0.030552899 -0.074795596 0.02)
(0.0297832 -0.074948698 0.02)
(0.0312961 -0.074543297 0.02)
(0.032000002 -0.074196197 0.02)
(0.032652602 -0.0737601 0.02)
(0.033242598 -0.073242597 0.02)
(0.033760101 -0.072652601 0.02)
(0.034196202 -0.071999997 0.02)
(0.034543298 -0.071296103 0.02)
(0.034795601 -0.0705529 0.02)
(0.034948699 -0.069783203 0.02)
(-0.034948699 0.069783203 0.02)
(-0.034795601 0.0705529 0.02)
(-0.034543298 0.071296103 0.02)
(-0.034196202 0.071999997 0.02)
(-0.033760101 0.072652601 0.02)
(-0.033242598 0.073242597 0.02)
(-0.032652602 0.0737601 0.02)
(-0.032000002 0.074196197 0.02)
(0.034948699 0.069783203 0.050000001)
(0.035 0.068999998 0.050000001)
(0.034543298 0.071296103 0.050000001)
(0.034795601 0.0705529 0.050000001)
(0.034196202 0.071999997 0.050000001)
(0.033760101 0.072652601 0.050000001)
(0.033242598 0.073242597 0.050000001)
(0.032000002 0.074196197 0.050000001)
(0.032652602 0.0737601 0.050000001)
(0.030552899 0.074795596 0.050000001)
(0.0312961 0.074543297 0.050000001)
(0.0297832 0.074948698 0.050000001)
(0.028999999 0.075000003 0.050000001)
(0.035 -0.068999998 0.050000001)
(0.0297832 -0.074948698 0.050000001)
(0.028999999 -0.075000003 0.050000001)
(0.030552899 -0.074795596 0.050000001)
(0.0312961 -0.074543297 0.050000001)
(0.032652602 -0.0737601 0.050000001)
(0.032000002 -0.074196197 0.050000001)
(0.033242598 -0.073242597 0.050000001)
(0.033760101 -0.072652601 0.050000001)
(0.034543298 -0.071296103 0.050000001)
(0.034196202 -0.071999997 0.050000001)
(0.034795601 -0.0705529 0.050000001)
(0.034948699 -0.069783203 0.050000001)
(-0.028999999 -0.075000003 0.050000001)
(-0.034948699 -0.069783203 0.050000001)
(-0.035 -0.068999998 0.050000001)
(-0.034543298 -0.071296103 0.050000001)
(-0.034795601 -0.0705529 0.050000001)
(-0.034196202 -0.071999997 0.050000001)
(-0.033760101 -0.072652601 0.050000001)
(-0.033242598 -0.073242597 0.050000001)
(-0.032652602 -0.0737601 0.050000001)
(-0.032000002 -0.074196197 0.050000001)
(-0.0312961 -0.074543297 0.050000001)
(-0.030552899 -0.074795596 0.050000001)
(-0.0297832 -0.074948698 0.050000001)
(-0.035 0.068999998 0.050000001)
(-0.0297832 0.074948698 0.050000001)
(-0.028999999 0.075000003 0.050000001)
(-0.030552899 0.074795596 0.050000001)
(-0.032000002 0.074196197 0.050000001)
(-0.0312961 0.074543297 0.050000001)
(-0.033242598 0.073242597 0.050000001)
(-0.032652602 0.0737601 0.050000001)
(-0.033760101 0.072652601 0.050000001)
(-0.034196202 0.071999997 0.050000001)
(-0.034543298 0.071296103 0.050000001)
(-0.034948699 0.069783203 0.050000001)
(-0.034795601 0.0705529 0.050000001)
)


// edges:

104
(
(0 1)
(2 0)
(3 4)
(5 6)
(4 5)
(7 8)
(1 7)
(9 10)
(11 12)
(6 13)
(8 14)
(15 2)
(16 15)
(17 18)
(13 17)
(19 20)
(21 19)
(22 16)
(23 24)
(14 23)
(25 26)
(18 25)
(27 22)
(24 11)
(28 29)
(26 28)
(30 31)
(29 30)
(31 21)
(20 9)
(32 27)
(33 34)
(35 33)
(36 35)
(37 36)
(38 37)
(39 38)
(40 39)
(41 40)
(42 41)
(43 42)
(10 43)
(34 32)
(12 44)
(44 45)
(45 46)
(47 48)
(46 47)
(49 50)
(48 49)
(51 3)
(50 51)
(52 53)
(54 55)
(55 52)
(56 54)
(57 56)
(58 57)
(59 60)
(60 58)
(61 62)
(62 59)
(63 61)
(64 63)
(53 65)
(66 67)
(68 66)
(69 68)
(70 71)
(71 69)
(72 70)
(73 72)
(74 75)
(75 73)
(76 74)
(77 76)
(65 77)
(67 78)
(79 80)
(81 82)
(82 79)
(83 81)
(84 83)
(85 84)
(86 85)
(87 86)
(88 87)
(89 88)
(90 89)
(78 90)
(80 91)
(92 93)
(94 92)
(95 96)
(96 94)
(97 98)
(98 95)
(99 97)
(100 99)
(101 100)
(102 103)
(103 101)
(91 102)
(93 64)
)

// * * * * * * * * * * * * * * * * * * * * * * * * * * * * * * * * * * * * * //


// ************************************************************************* //
