/*--------------------------------*- C++ -*----------------------------------*\
| =========                 |                                                 |
| \\      /  F ield         | foam-extend: Open Source CFD                    |
|  \\    /   O peration     | Version:     4.0                                |
|   \\  /    A nd           | Web:         http://www.extend-project.de       |
|    \\/     M anipulation  | For copyright notice see file Copyright         |
\*---------------------------------------------------------------------------*/
FoamFile
{
    version     2.0;
    format      ascii;
    class       featureEdgeMesh;
    object      coil2;
}
// * * * * * * * * * * * * * * * * * * * * * * * * * * * * * * * * * * * * * //

// points:

52
(
    (0.065 0.112 0.035)
    (0.064931558891 0.113044209538 0.035)
    (0.0647274066103 0.114070552361 0.035)
    (0.0643910362601 0.115061467459 0.035)
    (0.0639282032303 0.116 0.035)
    (0.0633468267223 0.116870091432 0.035)
    (0.0626568542495 0.117656854249 0.035)
    (0.0618700914321 0.118346826722 0.035)
    (0.061 0.11892820323 0.035)
    (0.0600614674589 0.11939103626 0.035)
    (0.0590705523608 0.11972740661 0.035)
    (0.0580442095378 0.119931558891 0.035)
    (0.057 0.12 0.035)
    (-0.057 0.12 0.035)
    (-0.0580442095378 0.119931558891 0.035)
    (-0.0590705523608 0.11972740661 0.035)
    (-0.0600614674589 0.11939103626 0.035)
    (-0.061 0.11892820323 0.035)
    (-0.0618700914321 0.118346826722 0.035)
    (-0.0626568542495 0.117656854249 0.035)
    (-0.0633468267223 0.116870091432 0.035)
    (-0.0639282032303 0.116 0.035)
    (-0.0643910362601 0.115061467459 0.035)
    (-0.0647274066103 0.114070552361 0.035)
    (-0.064931558891 0.113044209538 0.035)
    (-0.065 0.112 0.035)
    (-0.065 -0.112 0.035)
    (-0.064931558891 -0.113044209538 0.035)
    (-0.0647274066103 -0.114070552361 0.035)
    (-0.0643910362601 -0.115061467459 0.035)
    (-0.0639282032303 -0.116 0.035)
    (-0.0633468267223 -0.116870091432 0.035)
    (-0.0626568542495 -0.117656854249 0.035)
    (-0.0618700914321 -0.118346826722 0.035)
    (-0.061 -0.11892820323 0.035)
    (-0.0600614674589 -0.11939103626 0.035)
    (-0.0590705523608 -0.11972740661 0.035)
    (-0.0580442095378 -0.119931558891 0.035)
    (-0.057 -0.12 0.035)
    (0.057 -0.12 0.035)
    (0.0580442095378 -0.119931558891 0.035)
    (0.0590705523608 -0.11972740661 0.035)
    (0.0600614674589 -0.11939103626 0.035)
    (0.061 -0.11892820323 0.035)
    (0.0618700914321 -0.118346826722 0.035)
    (0.0626568542495 -0.117656854249 0.035)
    (0.0633468267223 -0.116870091432 0.035)
    (0.0639282032303 -0.116 0.035)
    (0.0643910362601 -0.115061467459 0.035)
    (0.0647274066103 -0.114070552361 0.035)
    (0.064931558891 -0.113044209538 0.035)
    (0.065 -0.112 0.035)
)

// edges:

52
(
    (0 1)
    (1 2)
    (2 3)
    (3 4)
    (4 5)
    (5 6)
    (6 7)
    (7 8)
    (8 9)
    (9 10)
    (10 11)
    (11 12)
    (12 13)
    (13 14)
    (14 15)
    (15 16)
    (16 17)
    (17 18)
    (18 19)
    (19 20)
    (20 21)
    (21 22)
    (22 23)
    (23 24)
    (24 25)
    (25 26)
    (26 27)
    (27 28)
    (28 29)
    (29 30)
    (30 31)
    (31 32)
    (32 33)
    (33 34)
    (34 35)
    (35 36)
    (36 37)
    (37 38)
    (38 39)
    (39 40)
    (40 41)
    (41 42)
    (42 43)
    (43 44)
    (44 45)
    (45 46)
    (46 47)
    (47 48)
    (48 49)
    (49 50)
    (50 51)
    (51 0)
)

// ************************************************************************* //

