/*--------------------------------*- C++ -*----------------------------------*\
| =========                 |                                                 |
| \\      /  F ield         | foam-extend: Open Source CFD                    |
|  \\    /   O peration     | Version:     4.0                                |
|   \\  /    A nd           | Web:         http://www.foam-extend.org         |
|    \\/     M anipulation  | For copyright notice see file Copyright         |
\*---------------------------------------------------------------------------*/
FoamFile
{
    version     2.0;
    format      ascii;
    class       volScalarField;
    location    "0";
    object      nuTilda;
}
// * * * * * * * * * * * * * * * * * * * * * * * * * * * * * * * * * * * * * //

dimensions      [0 2 -1 0 0 0 0];

internalField   uniform 0;

boundaryField
{
    trackedSurface
    {
        type            slip;
    }
    movingWall
    {
        type            fixedValue;
        value           uniform 0;
    }
    fixedWall
    {
        type            fixedValue;
        value           uniform 0;
    }
    "procBoundary.*"
    {
        type            processor;
        value           $internalField;
    }
}

// ************************************************************************* //
