/*--------------------------------*- C++ -*----------------------------------*\
| =========                 |                                                 |
| \\      /  F ield         | foam-extend: Open Source CFD                    |
|  \\    /   O peration     | Version:     4.0                                |
|   \\  /    A nd           | Web:         http://www.extend-project.de       |
|    \\/     M anipulation  | For copyright notice see file Copyright         |
\*---------------------------------------------------------------------------*/
FoamFile
{
    version     2.0;
    format      ascii;
    class       featureEdgeMesh;
    object      coil3;
}
// * * * * * * * * * * * * * * * * * * * * * * * * * * * * * * * * * * * * * //

// points:

40
(
    (0.168 0.144 -0.078625)
    (0.167635386072 0.148167556264 -0.078625)
    (0.166552622899 0.15220848344 -0.078625)
    (0.164784609691 0.156 -0.078625)
    (0.162385066635 0.159426902632 -0.078625)
    (0.159426902632 0.162385066635 -0.078625)
    (0.156 0.164784609691 -0.078625)
    (0.15220848344 0.166552622899 -0.078625)
    (0.148167556264 0.167635386072 -0.078625)
    (0.144 0.168 -0.078625)
    (-0.144 0.168 -0.078625)
    (-0.148167556264 0.167635386072 -0.078625)
    (-0.15220848344 0.166552622899 -0.078625)
    (-0.156 0.164784609691 -0.078625)
    (-0.159426902632 0.162385066635 -0.078625)
    (-0.162385066635 0.159426902632 -0.078625)
    (-0.164784609691 0.156 -0.078625)
    (-0.166552622899 0.15220848344 -0.078625)
    (-0.167635386072 0.148167556264 -0.078625)
    (-0.168 0.144 -0.078625)
    (-0.168 -0.144 -0.078625)
    (-0.167635386072 -0.148167556264 -0.078625)
    (-0.166552622899 -0.15220848344 -0.078625)
    (-0.164784609691 -0.156 -0.078625)
    (-0.162385066635 -0.159426902632 -0.078625)
    (-0.159426902632 -0.162385066635 -0.078625)
    (-0.156 -0.164784609691 -0.078625)
    (-0.15220848344 -0.166552622899 -0.078625)
    (-0.148167556264 -0.167635386072 -0.078625)
    (-0.144 -0.168 -0.078625)
    (0.144 -0.168 -0.078625)
    (0.148167556264 -0.167635386072 -0.078625)
    (0.15220848344 -0.166552622899 -0.078625)
    (0.156 -0.164784609691 -0.078625)
    (0.159426902632 -0.162385066635 -0.078625)
    (0.162385066635 -0.159426902632 -0.078625)
    (0.164784609691 -0.156 -0.078625)
    (0.166552622899 -0.15220848344 -0.078625)
    (0.167635386072 -0.148167556264 -0.078625)
    (0.168 -0.144 -0.078625)
)

// edges:

40
(
    (0 1)
    (1 2)
    (2 3)
    (3 4)
    (4 5)
    (5 6)
    (6 7)
    (7 8)
    (8 9)
    (9 10)
    (10 11)
    (11 12)
    (12 13)
    (13 14)
    (14 15)
    (15 16)
    (16 17)
    (17 18)
    (18 19)
    (19 20)
    (20 21)
    (21 22)
    (22 23)
    (23 24)
    (24 25)
    (25 26)
    (26 27)
    (27 28)
    (28 29)
    (29 30)
    (30 31)
    (31 32)
    (32 33)
    (33 34)
    (34 35)
    (35 36)
    (36 37)
    (37 38)
    (38 39)
    (39 0)
)

// ************************************************************************* //

