/*--------------------------------*- C++ -*----------------------------------*\
| =========                 |                                                 |
| \\      /  F ield         | foam-extend: Open Source CFD                    |
|  \\    /   O peration     | Version:     4.1                                |
|   \\  /    A nd           | Web:         http://www.foam-extend.org         |
|    \\/     M anipulation  |                                                 |
\*---------------------------------------------------------------------------*/
FoamFile
{
    version     2.0;
    format      binary;
    class       dictionary;
    location    "system";
    object      fvSchemes;
}
// * * * * * * * * * * * * * * * * * * * * * * * * * * * * * * * * * * * * * //

ddtSchemes
{
    default         none;
}

gradSchemes
{
    default         none;
    curl(ARe)       Gauss skewCorrected linear;
    curl(AIm)       Gauss skewCorrected linear;
    grad(ARe)       Gauss skewCorrected linear;
    grad(AIm)       Gauss skewCorrected linear;
}

divSchemes
{
    default         none;
}

laplacianSchemes
{
    default         none;
    laplacian(ARe)  Gauss linear corrected;
    laplacian(AIm)  Gauss linear corrected;
}

interpolationSchemes
{
    default         none;
    interpolate(grad(ARe)) skewCorrected linear;
    interpolate(grad(AIm)) skewCorrected linear;
}


// ************************************************************************* //
