/*--------------------------------*- C++ -*----------------------------------*\
| =========                 |                                                 |
| \\      /  F ield         | foam-extend: Open Source CFD                    |
|  \\    /   O peration     | Version:     4.0                                |
|   \\  /    A nd           | Web:         http://www.foam-extend.org         |
|    \\/     M anipulation  | For copyright notice see file Copyright         |
\*---------------------------------------------------------------------------*/
FoamFile
{
    version     2.0;
    format      ascii;
    class       dictionary;
    object      blockMeshDict;
}
// * * * * * * * * * * * * * * * * * * * * * * * * * * * * * * * * * * * * * //

convertToMeters 0.001;

vertices
(
    ( -150.0 0.625 -60.0 ) // # 0
    ( 150.0 0.625 -60.0 ) // # 1
    ( -150.0 0.625 140.0 ) // # 2
    ( 150.0 0.625 140.0 ) // # 3
    ( -150.0 1.875 -60.0 ) // # 4
    ( 150.0 1.875 -60.0 ) // # 5
    ( -150.0 1.875 140.0 ) // # 6
    ( 150.0 1.875 140.0 ) // # 7
);

blocks
(
    hex ( 0 1 5 4 2 3 7 6 ) background ( 60 1 40 ) simpleGrading ( 1.0 1.0 1.0 ) // # 0
);

edges
(
);

boundary
(
    front
    {
        type empty;
        faces
        (
            ( 0 1 3 2 )
        );
    }

    back
    {
        type empty;
        faces
        (
            ( 5 4 6 7 )
        );
    }

    infinity
    {
        type patch;
        faces
        (
            ( 0 4 6 2 )
            ( 1 5 7 3 )
            ( 0 1 5 4 )
            ( 2 3 7 6 )
        );
    }
);

mergePatchPairs
(
);

// ************************************************************************* //

