/*--------------------------------*- C++ -*----------------------------------*\
| =========                 |                                                 |
| \\      /  F ield         | foam-extend: Open Source CFD                    |
|  \\    /   O peration     | Version:     4.0                                |
|   \\  /    A nd           | Web:         http://www.foam-extend.org         |
|    \\/     M anipulation  | For copyright notice see file Copyright         |
\*---------------------------------------------------------------------------*/
FoamFile
{
    version     2.0;
    format      ascii;
    class       polyBoundaryMesh;
    object      boundary;
}
// * * * * * * * * * * * * * * * * * * * * * * * * * * * * * * * * * * * * * //

3
(
    front
    {
        type            empty;
        inGroups        1(empty);
        nFaces          7764;
        startFace       63011;
    }
    back
    {
        type            empty;
        inGroups        1(empty);
        nFaces          7764;
        startFace       70775;
    }
    infinity
    {
        type            patch;
        nFaces          200;
        startFace       78539;
    }
)

// ************************************************************************* //
