/*--------------------------------*- C++ -*----------------------------------*\
| =========                 |                                                 |
| \\      /  F ield         | foam-extend: Open Source CFD                    |
|  \\    /   O peration     | Version:     3.1                                |
|   \\  /    A nd           | Web:         http://www.extend-project.de       |
|    \\/     M anipulation  |                                                 |
\*---------------------------------------------------------------------------*/
FoamFile
{
    version     2.0;
    format      ascii;
    class       dictionary;
    object      fvSolution;
}
// * * * * * * * * * * * * * * * * * * * * * * * * * * * * * * * * * * * * * //

solvers
{
    cellMotionU
//     {
//         solver                   PCG;
//         tolerance                1e-09;
//         relTol                   1e-03;
//         preconditioner           DIC;
//     }
    {
        solver                   GAMG;
        tolerance                1e-09;
        relTol                   1e-03;
        smoother                 DICGaussSeidel;
        nPreSweeps               0;
        nPostSweeps              2;
        cacheAgglomeration       on;
        agglomerator             faceAreaPair;
        nCellsInCoarsestLevel    200;
        mergeLevels              1;
    }
}

// ************************************************************************* //
