/*--------------------------------*- C++ -*----------------------------------*\
| =========                 |                                                 |
| \\      /  F ield         | foam-extend: Open Source CFD                    |
|  \\    /   O peration     | Version:     3.1                                |
|   \\  /    A nd           | Web:         http://www.extend-project.de       |
|    \\/     M anipulation  |                                                 |
\*---------------------------------------------------------------------------*/
FoamFile
{
    version     2.0;
    format      ascii;
    class       dictionary;
    object      faMeshDefinition;
}
// ************************************************************************** //

polyMeshPatches               1(trackedSurface);

boundary
{
    axis
    {
        type                  patch;
        ownerPolyPatch        trackedSurface;
        neighbourPolyPatch    axis;
    }

    fixedWallSide
    {
        type                  patch;
        ownerPolyPatch        trackedSurface;
        neighbourPolyPatch    fixedWallSide;
    }

    front
    {
        type                  wedge;
        ownerPolyPatch        trackedSurface;
        neighbourPolyPatch    front;
    }

    back
    {
        type                  wedge;
        ownerPolyPatch        trackedSurface;
        neighbourPolyPatch    back;
    }
}

// ************************************************************************** //
