/*--------------------------------*- C++ -*----------------------------------*\
| =========                 |                                                 |
| \\      /  F ield         | foam-extend: Open Source CFD                    |
|  \\    /   O peration     | Version:     4.0                                |
|   \\  /    A nd           | Web:         http://www.foam-extend.org         |
|    \\/     M anipulation  |                                                 |
\*---------------------------------------------------------------------------*/
FoamFile
{
    version     2.0;
    format      ascii;
    class       volScalarField;
    object      kappat;
}
// * * * * * * * * * * * * * * * * * * * * * * * * * * * * * * * * * * * * * //

dimensions      [0 2 -1 0 0 0 0];

internalField   uniform 0;

boundaryField
{
    axis
    {
        type            slip;
    }
    front
    {
        type            wedge;
    }
    back
    {
        type            wedge;
    }
    ".*Wall"
    {
// TODO: alphat wall functions?
// TODO: alphatJayatillekeWallFunction?
//         type            alphatWallFunction;
//         value           uniform 0;
        type            fixedValue;
        value           uniform 0;
    }
    "procBoundary.*"
    {
        type            processor;
        value           $internalField;
    }
}


// ************************************************************************* //
