/*--------------------------------*- C++ -*----------------------------------*\
| =========                 |                                                 |
| \\      /  F ield         | foam-extend: Open Source CFD                    |
|  \\    /   O peration     | Version:     4.0                                |
|   \\  /    A nd           | Web:         http://www.extend-project.de       |
|    \\/     M anipulation  | For copyright notice see file Copyright         |
\*---------------------------------------------------------------------------*/
FoamFile
{
    version     2.0;
    format      ascii;
    class       featureEdgeMesh;
    object      coil0.eMesh;
}
// * * * * * * * * * * * * * * * * * * * * * * * * * * * * * * * * * * * * * //

// points:

1872
(
    (0.061 0.077 -0.01)
    (0.06092300375236429 0.07817473572998046 -0.01)
    (0.06069333243660161 0.07932937140592268 -0.01)
    (0.06031491579260158 0.0804441508912858 -0.01)
    (0.05979422863405995 0.0815 -0.01)
    (0.05914018006262112 0.08247885286107848 -0.01)
    (0.058363961030678924 0.08336396103067893 -0.01)
    (0.05747885286107848 0.08414018006262111 -0.01)
    (0.056499999999999995 0.08479422863405994 -0.01)
    (0.05544415089128581 0.08531491579260159 -0.01)
    (0.054329371405922686 0.08569333243660161 -0.01)
    (0.053174735729980466 0.0859230037523643 -0.01)
    (0.052 0.086 -0.01)
    (-0.052 0.086 -0.01)
    (-0.05317473572998046 0.0859230037523643 -0.01)
    (-0.054329371405922686 0.08569333243660161 -0.01)
    (-0.05544415089128581 0.08531491579260159 -0.01)
    (-0.056499999999999995 0.08479422863405994 -0.01)
    (-0.05747885286107848 0.08414018006262111 -0.01)
    (-0.058363961030678924 0.08336396103067893 -0.01)
    (-0.05914018006262111 0.08247885286107849 -0.01)
    (-0.05979422863405994 0.0815 -0.01)
    (-0.06031491579260158 0.0804441508912858 -0.01)
    (-0.06069333243660161 0.0793293714059227 -0.01)
    (-0.06092300375236429 0.07817473572998046 -0.01)
    (-0.061 0.077 -0.01)
    (-0.061 -0.077 -0.01)
    (-0.06092300375236429 -0.07817473572998046 -0.01)
    (-0.06069333243660161 -0.07932937140592268 -0.01)
    (-0.06031491579260158 -0.0804441508912858 -0.01)
    (-0.05979422863405995 -0.08149999999999999 -0.01)
    (-0.05914018006262112 -0.08247885286107848 -0.01)
    (-0.058363961030678924 -0.08336396103067893 -0.01)
    (-0.05747885286107848 -0.08414018006262111 -0.01)
    (-0.0565 -0.08479422863405994 -0.01)
    (-0.055444150891285814 -0.08531491579260157 -0.01)
    (-0.054329371405922686 -0.08569333243660161 -0.01)
    (-0.053174735729980466 -0.0859230037523643 -0.01)
    (-0.052 -0.086 -0.01)
    (0.052 -0.086 -0.01)
    (0.05317473572998046 -0.0859230037523643 -0.01)
    (0.05432937140592268 -0.08569333243660161 -0.01)
    (0.05544415089128581 -0.08531491579260157 -0.01)
    (0.056499999999999995 -0.08479422863405994 -0.01)
    (0.05747885286107848 -0.08414018006262111 -0.01)
    (0.058363961030678924 -0.08336396103067893 -0.01)
    (0.05914018006262111 -0.08247885286107849 -0.01)
    (0.05979422863405994 -0.0815 -0.01)
    (0.06031491579260158 -0.08044415089128581 -0.01)
    (0.06069333243660161 -0.07932937140592268 -0.01)
    (0.06092300375236429 -0.07817473572998046 -0.01)
    (0.061 -0.077 -0.01)
    (0.062 0.077 -0.01)
    (0.061914448613738106 0.07830526192220051 -0.01)
    (0.06165925826289069 0.0795881904510252 -0.01)
    (0.06123879532511287 0.0808268343236509 -0.01)
    (0.06066025403784439 0.082 -0.01)
    (0.05993353340291235 0.08308761429008721 -0.01)
    (0.05907106781186548 0.08407106781186548 -0.01)
    (0.058087614290087214 0.08493353340291235 -0.01)
    (0.057 0.08566025403784439 -0.01)
    (0.055826834323650903 0.08623879532511286 -0.01)
    (0.05458819045102521 0.08665925826289068 -0.01)
    (0.053305261922200524 0.08691444861373811 -0.01)
    (0.052000000000000005 0.087 -0.01)
    (-0.052000000000000005 0.087 -0.01)
    (-0.05330526192220052 0.08691444861373811 -0.01)
    (-0.05458819045102521 0.08665925826289068 -0.01)
    (-0.055826834323650903 0.08623879532511286 -0.01)
    (-0.057 0.08566025403784439 -0.01)
    (-0.058087614290087214 0.08493353340291235 -0.01)
    (-0.059071067811865476 0.08407106781186548 -0.01)
    (-0.05993353340291235 0.08308761429008721 -0.01)
    (-0.06066025403784439 0.082 -0.01)
    (-0.06123879532511287 0.0808268343236509 -0.01)
    (-0.06165925826289068 0.0795881904510252 -0.01)
    (-0.061914448613738106 0.07830526192220051 -0.01)
    (-0.062 0.077 -0.01)
    (-0.062 -0.077 -0.01)
    (-0.061914448613738106 -0.07830526192220051 -0.01)
    (-0.06165925826289069 -0.0795881904510252 -0.01)
    (-0.06123879532511287 -0.0808268343236509 -0.01)
    (-0.06066025403784439 -0.08199999999999999 -0.01)
    (-0.05993353340291235 -0.08308761429008721 -0.01)
    (-0.05907106781186548 -0.08407106781186548 -0.01)
    (-0.058087614290087214 -0.08493353340291235 -0.01)
    (-0.05700000000000001 -0.08566025403784439 -0.01)
    (-0.05582683432365091 -0.08623879532511286 -0.01)
    (-0.05458819045102521 -0.08665925826289068 -0.01)
    (-0.053305261922200524 -0.08691444861373811 -0.01)
    (-0.052000000000000005 -0.087 -0.01)
    (0.052000000000000005 -0.087 -0.01)
    (0.05330526192220052 -0.08691444861373811 -0.01)
    (0.054588190451025205 -0.08665925826289068 -0.01)
    (0.055826834323650903 -0.08623879532511286 -0.01)
    (0.057 -0.08566025403784439 -0.01)
    (0.05808761429008721 -0.08493353340291235 -0.01)
    (0.059071067811865476 -0.08407106781186548 -0.01)
    (0.05993353340291235 -0.08308761429008721 -0.01)
    (0.06066025403784439 -0.082 -0.01)
    (0.061238795325112866 -0.0808268343236509 -0.01)
    (0.06165925826289069 -0.0795881904510252 -0.01)
    (0.061914448613738106 -0.07830526192220051 -0.01)
    (0.062 -0.077 -0.01)
    (0.063 0.077 -0.01)
    (0.06290589347511191 0.07843578811442056 -0.01)
    (0.06262518408917976 0.07984700949612773 -0.01)
    (0.06216267485762416 0.08120951775601598 -0.01)
    (0.061526279441628834 0.0825 -0.01)
    (0.06072688674320359 0.08369637571909593 -0.01)
    (0.05977817459305203 0.08477817459305202 -0.01)
    (0.05869637571909593 0.08572688674320358 -0.01)
    (0.0575 0.08652627944162883 -0.01)
    (0.05620951775601599 0.08716267485762415 -0.01)
    (0.05484700949612774 0.08762518408917974 -0.01)
    (0.053435788114420575 0.08790589347511191 -0.01)
    (0.052000000000000005 0.088 -0.01)
    (-0.052000000000000005 0.088 -0.01)
    (-0.053435788114420575 0.08790589347511191 -0.01)
    (-0.05484700949612773 0.08762518408917976 -0.01)
    (-0.05620951775601599 0.08716267485762415 -0.01)
    (-0.0575 0.08652627944162883 -0.01)
    (-0.05869637571909593 0.08572688674320358 -0.01)
    (-0.05977817459305203 0.08477817459305202 -0.01)
    (-0.06072688674320359 0.08369637571909593 -0.01)
    (-0.06152627944162883 0.0825 -0.01)
    (-0.06216267485762416 0.08120951775601598 -0.01)
    (-0.06262518408917975 0.07984700949612773 -0.01)
    (-0.06290589347511191 0.07843578811442056 -0.01)
    (-0.063 0.077 -0.01)
    (-0.063 -0.077 -0.01)
    (-0.06290589347511191 -0.07843578811442056 -0.01)
    (-0.06262518408917976 -0.07984700949612773 -0.01)
    (-0.06216267485762416 -0.08120951775601598 -0.01)
    (-0.061526279441628834 -0.08249999999999999 -0.01)
    (-0.06072688674320359 -0.08369637571909593 -0.01)
    (-0.05977817459305203 -0.08477817459305202 -0.01)
    (-0.05869637571909593 -0.08572688674320358 -0.01)
    (-0.05750000000000001 -0.08652627944162883 -0.01)
    (-0.056209517756016 -0.08716267485762415 -0.01)
    (-0.05484700949612773 -0.08762518408917976 -0.01)
    (-0.053435788114420575 -0.08790589347511191 -0.01)
    (-0.052000000000000005 -0.088 -0.01)
    (0.052000000000000005 -0.088 -0.01)
    (0.05343578811442057 -0.08790589347511191 -0.01)
    (0.054847009496127724 -0.08762518408917976 -0.01)
    (0.05620951775601599 -0.08716267485762415 -0.01)
    (0.0575 -0.08652627944162883 -0.01)
    (0.05869637571909593 -0.08572688674320358 -0.01)
    (0.05977817459305203 -0.08477817459305202 -0.01)
    (0.06072688674320359 -0.08369637571909593 -0.01)
    (0.06152627944162883 -0.0825 -0.01)
    (0.06216267485762415 -0.081209517756016 -0.01)
    (0.06262518408917976 -0.07984700949612773 -0.01)
    (0.06290589347511191 -0.07843578811442056 -0.01)
    (0.063 -0.077 -0.01)
    (0.064 0.077 -0.01)
    (0.06389733833648573 0.07856631430664061 -0.01)
    (0.06359110991546882 0.08010582854123025 -0.01)
    (0.06308655439013544 0.08159220118838108 -0.01)
    (0.06239230484541327 0.083 -0.01)
    (0.061520240083494826 0.08430513714810464 -0.01)
    (0.06048528137423857 0.08548528137423857 -0.01)
    (0.059305137148104654 0.08652024008349482 -0.01)
    (0.05800000000000001 0.08739230484541326 -0.01)
    (0.05659220118838108 0.08808655439013544 -0.01)
    (0.05510582854123026 0.08859110991546881 -0.01)
    (0.053566314306640626 0.08889733833648572 -0.01)
    (0.052000000000000005 0.089 -0.01)
    (-0.052000000000000005 0.089 -0.01)
    (-0.053566314306640626 0.08889733833648572 -0.01)
    (-0.05510582854123025 0.08859110991546881 -0.01)
    (-0.05659220118838108 0.08808655439013544 -0.01)
    (-0.058 0.08739230484541327 -0.01)
    (-0.059305137148104654 0.08652024008349482 -0.01)
    (-0.06048528137423857 0.08548528137423857 -0.01)
    (-0.061520240083494826 0.08430513714810466 -0.01)
    (-0.06239230484541326 0.083 -0.01)
    (-0.06308655439013544 0.08159220118838108 -0.01)
    (-0.06359110991546882 0.08010582854123025 -0.01)
    (-0.06389733833648573 0.07856631430664061 -0.01)
    (-0.064 0.077 -0.01)
    (-0.064 -0.077 -0.01)
    (-0.06389733833648573 -0.07856631430664061 -0.01)
    (-0.06359110991546882 -0.08010582854123025 -0.01)
    (-0.06308655439013544 -0.08159220118838108 -0.01)
    (-0.06239230484541327 -0.08299999999999999 -0.01)
    (-0.061520240083494826 -0.08430513714810464 -0.01)
    (-0.06048528137423858 -0.08548528137423857 -0.01)
    (-0.059305137148104654 -0.08652024008349482 -0.01)
    (-0.05800000000000001 -0.08739230484541326 -0.01)
    (-0.05659220118838109 -0.08808655439013544 -0.01)
    (-0.05510582854123025 -0.08859110991546881 -0.01)
    (-0.053566314306640626 -0.08889733833648572 -0.01)
    (-0.052000000000000005 -0.089 -0.01)
    (0.052000000000000005 -0.089 -0.01)
    (0.05356631430664062 -0.08889733833648572 -0.01)
    (0.05510582854123025 -0.08859110991546881 -0.01)
    (0.05659220118838108 -0.08808655439013544 -0.01)
    (0.05800000000000001 -0.08739230484541326 -0.01)
    (0.05930513714810465 -0.08652024008349482 -0.01)
    (0.06048528137423857 -0.08548528137423857 -0.01)
    (0.061520240083494826 -0.08430513714810466 -0.01)
    (0.06239230484541326 -0.083 -0.01)
    (0.06308655439013544 -0.08159220118838108 -0.01)
    (0.06359110991546882 -0.08010582854123025 -0.01)
    (0.06389733833648573 -0.07856631430664061 -0.01)
    (0.064 -0.077 -0.01)
    (0.065 0.077 -0.01)
    (0.06488878319785954 0.07869684049886067 -0.01)
    (0.06455703574175789 0.08036464758633277 -0.01)
    (0.06401043392264673 0.08197488462074616 -0.01)
    (0.0632583302491977 0.08349999999999999 -0.01)
    (0.06231359342378606 0.08491389857711337 -0.01)
    (0.061192388155425124 0.08619238815542511 -0.01)
    (0.05991389857711337 0.08731359342378606 -0.01)
    (0.0585 0.0882583302491977 -0.01)
    (0.05697488462074617 0.08901043392264672 -0.01)
    (0.05536464758633278 0.08955703574175788 -0.01)
    (0.05369684049886068 0.08988878319785953 -0.01)
    (0.052000000000000005 0.09 -0.01)
    (-0.052000000000000005 0.09 -0.01)
    (-0.05369684049886068 0.08988878319785953 -0.01)
    (-0.05536464758633277 0.08955703574175788 -0.01)
    (-0.05697488462074617 0.08901043392264672 -0.01)
    (-0.0585 0.0882583302491977 -0.01)
    (-0.05991389857711337 0.08731359342378606 -0.01)
    (-0.06119238815542512 0.08619238815542511 -0.01)
    (-0.06231359342378606 0.08491389857711337 -0.01)
    (-0.0632583302491977 0.0835 -0.01)
    (-0.06401043392264673 0.08197488462074617 -0.01)
    (-0.06455703574175789 0.08036464758633277 -0.01)
    (-0.06488878319785954 0.07869684049886067 -0.01)
    (-0.065 0.077 -0.01)
    (-0.065 -0.077 -0.01)
    (-0.06488878319785954 -0.07869684049886067 -0.01)
    (-0.06455703574175789 -0.08036464758633277 -0.01)
    (-0.06401043392264673 -0.08197488462074616 -0.01)
    (-0.0632583302491977 -0.08349999999999999 -0.01)
    (-0.06231359342378606 -0.08491389857711337 -0.01)
    (-0.061192388155425124 -0.08619238815542511 -0.01)
    (-0.05991389857711338 -0.08731359342378606 -0.01)
    (-0.05850000000000001 -0.0882583302491977 -0.01)
    (-0.05697488462074618 -0.08901043392264672 -0.01)
    (-0.05536464758633277 -0.08955703574175788 -0.01)
    (-0.05369684049886068 -0.08988878319785953 -0.01)
    (-0.052000000000000005 -0.09 -0.01)
    (0.052000000000000005 -0.09 -0.01)
    (0.05369684049886067 -0.08988878319785953 -0.01)
    (0.05536464758633277 -0.08955703574175788 -0.01)
    (0.05697488462074617 -0.08901043392264672 -0.01)
    (0.0585 -0.0882583302491977 -0.01)
    (0.05991389857711337 -0.08731359342378606 -0.01)
    (0.06119238815542512 -0.08619238815542513 -0.01)
    (0.06231359342378606 -0.08491389857711337 -0.01)
    (0.0632583302491977 -0.0835 -0.01)
    (0.06401043392264673 -0.08197488462074617 -0.01)
    (0.06455703574175789 -0.08036464758633277 -0.01)
    (0.06488878319785954 -0.07869684049886067 -0.01)
    (0.065 -0.077 -0.01)
    (0.066 0.077 -0.01)
    (0.06588022805923335 0.07882736669108072 -0.01)
    (0.06552296156804696 0.08062346663143528 -0.01)
    (0.06493431345515802 0.08235756805311126 -0.01)
    (0.06412435565298215 0.08399999999999999 -0.01)
    (0.0631069467640773 0.08552266000612209 -0.01)
    (0.06189949493661167 0.08689949493661166 -0.01)
    (0.060522660006122095 0.08810694676407729 -0.01)
    (0.059000000000000004 0.08912435565298214 -0.01)
    (0.05735756805311126 0.08993431345515801 -0.01)
    (0.055623466631435296 0.09052296156804696 -0.01)
    (0.05382736669108073 0.09088022805923335 -0.01)
    (0.052000000000000005 0.091 -0.01)
    (-0.052000000000000005 0.091 -0.01)
    (-0.05382736669108073 0.09088022805923335 -0.01)
    (-0.05562346663143529 0.09052296156804696 -0.01)
    (-0.05735756805311126 0.08993431345515801 -0.01)
    (-0.059 0.08912435565298214 -0.01)
    (-0.060522660006122095 0.08810694676407729 -0.01)
    (-0.06189949493661167 0.08689949493661167 -0.01)
    (-0.0631069467640773 0.08552266000612209 -0.01)
    (-0.06412435565298213 0.084 -0.01)
    (-0.06493431345515802 0.08235756805311126 -0.01)
    (-0.06552296156804696 0.0806234666314353 -0.01)
    (-0.06588022805923335 0.07882736669108072 -0.01)
    (-0.066 0.077 -0.01)
    (-0.066 -0.077 -0.01)
    (-0.06588022805923335 -0.07882736669108072 -0.01)
    (-0.06552296156804696 -0.08062346663143528 -0.01)
    (-0.06493431345515802 -0.08235756805311126 -0.01)
    (-0.06412435565298215 -0.08399999999999999 -0.01)
    (-0.0631069467640773 -0.08552266000612209 -0.01)
    (-0.06189949493661167 -0.08689949493661166 -0.01)
    (-0.060522660006122095 -0.08810694676407729 -0.01)
    (-0.05900000000000001 -0.08912435565298213 -0.01)
    (-0.05735756805311127 -0.08993431345515801 -0.01)
    (-0.05562346663143529 -0.09052296156804696 -0.01)
    (-0.05382736669108073 -0.09088022805923335 -0.01)
    (-0.052000000000000005 -0.091 -0.01)
    (0.052000000000000005 -0.091 -0.01)
    (0.05382736669108072 -0.09088022805923335 -0.01)
    (0.05562346663143529 -0.09052296156804696 -0.01)
    (0.05735756805311126 -0.08993431345515801 -0.01)
    (0.059000000000000004 -0.08912435565298214 -0.01)
    (0.060522660006122095 -0.08810694676407729 -0.01)
    (0.06189949493661166 -0.08689949493661167 -0.01)
    (0.0631069467640773 -0.08552266000612209 -0.01)
    (0.06412435565298213 -0.084 -0.01)
    (0.06493431345515802 -0.08235756805311126 -0.01)
    (0.06552296156804696 -0.08062346663143528 -0.01)
    (0.06588022805923335 -0.07882736669108072 -0.01)
    (0.066 -0.077 -0.01)
    (0.067 0.077 -0.01)
    (0.06687167292060717 0.07895789288330077 -0.01)
    (0.06648888739433603 0.08088228567653781 -0.01)
    (0.0658581929876693 0.08274025148547634 -0.01)
    (0.06499038105676658 0.08449999999999999 -0.01)
    (0.06390030010436853 0.0861314214351308 -0.01)
    (0.06260660171779822 0.08760660171779822 -0.01)
    (0.06113142143513081 0.08890030010436853 -0.01)
    (0.059500000000000004 0.08999038105676657 -0.01)
    (0.05774025148547635 0.0908581929876693 -0.01)
    (0.055882285676537816 0.09148888739433603 -0.01)
    (0.05395789288330078 0.09187167292060716 -0.01)
    (0.052000000000000005 0.092 -0.01)
    (-0.052000000000000005 0.092 -0.01)
    (-0.05395789288330078 0.09187167292060716 -0.01)
    (-0.055882285676537816 0.09148888739433603 -0.01)
    (-0.05774025148547635 0.0908581929876693 -0.01)
    (-0.0595 0.08999038105676657 -0.01)
    (-0.06113142143513081 0.08890030010436853 -0.01)
    (-0.06260660171779822 0.08760660171779822 -0.01)
    (-0.06390030010436853 0.0861314214351308 -0.01)
    (-0.06499038105676658 0.0845 -0.01)
    (-0.0658581929876693 0.08274025148547634 -0.01)
    (-0.06648888739433603 0.08088228567653781 -0.01)
    (-0.06687167292060717 0.07895789288330077 -0.01)
    (-0.067 0.077 -0.01)
    (-0.067 -0.077 -0.01)
    (-0.06687167292060717 -0.07895789288330077 -0.01)
    (-0.06648888739433603 -0.08088228567653781 -0.01)
    (-0.0658581929876693 -0.08274025148547634 -0.01)
    (-0.06499038105676659 -0.08449999999999999 -0.01)
    (-0.06390030010436853 -0.0861314214351308 -0.01)
    (-0.06260660171779822 -0.08760660171779822 -0.01)
    (-0.06113142143513082 -0.08890030010436853 -0.01)
    (-0.05950000000000001 -0.08999038105676657 -0.01)
    (-0.05774025148547636 -0.0908581929876693 -0.01)
    (-0.055882285676537816 -0.09148888739433603 -0.01)
    (-0.05395789288330078 -0.09187167292060716 -0.01)
    (-0.052000000000000005 -0.092 -0.01)
    (0.052000000000000005 -0.092 -0.01)
    (0.05395789288330077 -0.09187167292060716 -0.01)
    (0.05588228567653781 -0.09148888739433603 -0.01)
    (0.05774025148547635 -0.0908581929876693 -0.01)
    (0.059500000000000004 -0.08999038105676657 -0.01)
    (0.06113142143513081 -0.08890030010436853 -0.01)
    (0.06260660171779822 -0.08760660171779822 -0.01)
    (0.06390030010436853 -0.0861314214351308 -0.01)
    (0.06499038105676658 -0.0845 -0.01)
    (0.0658581929876693 -0.08274025148547635 -0.01)
    (0.06648888739433603 -0.08088228567653781 -0.01)
    (0.06687167292060717 -0.07895789288330077 -0.01)
    (0.067 -0.077 -0.01)
    (0.068 0.077 -0.01)
    (0.06786311778198097 0.07908841907552082 -0.01)
    (0.0674548132206251 0.08114110472164034 -0.01)
    (0.06678207252018059 0.08312293491784144 -0.01)
    (0.06585640646055102 0.08499999999999999 -0.01)
    (0.06469365344465977 0.08674018286413952 -0.01)
    (0.06331370849898477 0.08831370849898476 -0.01)
    (0.061740182864139535 0.08969365344465977 -0.01)
    (0.060000000000000005 0.09085640646055101 -0.01)
    (0.05812293491784144 0.09178207252018059 -0.01)
    (0.05614110472164034 0.0924548132206251 -0.01)
    (0.05408841907552083 0.09286311778198096 -0.01)
    (0.052000000000000005 0.093 -0.01)
    (-0.052000000000000005 0.093 -0.01)
    (-0.05408841907552083 0.09286311778198096 -0.01)
    (-0.056141104721640335 0.0924548132206251 -0.01)
    (-0.05812293491784144 0.09178207252018059 -0.01)
    (-0.06 0.09085640646055101 -0.01)
    (-0.061740182864139535 0.08969365344465977 -0.01)
    (-0.06331370849898477 0.08831370849898476 -0.01)
    (-0.06469365344465977 0.08674018286413954 -0.01)
    (-0.06585640646055102 0.085 -0.01)
    (-0.06678207252018059 0.08312293491784144 -0.01)
    (-0.0674548132206251 0.08114110472164034 -0.01)
    (-0.06786311778198097 0.07908841907552082 -0.01)
    (-0.068 0.077 -0.01)
    (-0.068 -0.077 -0.01)
    (-0.06786311778198098 -0.07908841907552082 -0.01)
    (-0.0674548132206251 -0.08114110472164034 -0.01)
    (-0.06678207252018059 -0.08312293491784144 -0.01)
    (-0.06585640646055102 -0.08499999999999999 -0.01)
    (-0.06469365344465977 -0.08674018286413954 -0.01)
    (-0.06331370849898477 -0.08831370849898476 -0.01)
    (-0.06174018286413954 -0.08969365344465977 -0.01)
    (-0.06000000000000001 -0.09085640646055101 -0.01)
    (-0.05812293491784145 -0.09178207252018059 -0.01)
    (-0.056141104721640335 -0.0924548132206251 -0.01)
    (-0.05408841907552083 -0.09286311778198096 -0.01)
    (-0.052000000000000005 -0.093 -0.01)
    (0.052000000000000005 -0.093 -0.01)
    (0.054088419075520824 -0.09286311778198097 -0.01)
    (0.05614110472164033 -0.0924548132206251 -0.01)
    (0.05812293491784144 -0.09178207252018059 -0.01)
    (0.060000000000000005 -0.09085640646055101 -0.01)
    (0.061740182864139535 -0.08969365344465977 -0.01)
    (0.06331370849898477 -0.08831370849898476 -0.01)
    (0.06469365344465977 -0.08674018286413954 -0.01)
    (0.06585640646055102 -0.085 -0.01)
    (0.06678207252018059 -0.08312293491784145 -0.01)
    (0.0674548132206251 -0.08114110472164034 -0.01)
    (0.06786311778198097 -0.07908841907552083 -0.01)
    (0.068 -0.077 -0.01)
    (0.069 0.077 -0.01)
    (0.06885456264335478 0.07921894526774087 -0.01)
    (0.06842073904691418 0.08139992376674285 -0.01)
    (0.06770595205269188 0.08350561835020652 -0.01)
    (0.06672243186433546 0.08549999999999999 -0.01)
    (0.06548700678495101 0.08734894429314825 -0.01)
    (0.06402081528017131 0.0890208152801713 -0.01)
    (0.06234894429314826 0.090487006784951 -0.01)
    (0.060500000000000005 0.09172243186433546 -0.01)
    (0.05850561835020653 0.09270595205269187 -0.01)
    (0.05639992376674286 0.09342073904691416 -0.01)
    (0.05421894526774088 0.09385456264335477 -0.01)
    (0.052000000000000005 0.094 -0.01)
    (-0.052000000000000005 0.094 -0.01)
    (-0.05421894526774088 0.09385456264335477 -0.01)
    (-0.056399923766742854 0.09342073904691417 -0.01)
    (-0.05850561835020653 0.09270595205269187 -0.01)
    (-0.0605 0.09172243186433546 -0.01)
    (-0.06234894429314826 0.090487006784951 -0.01)
    (-0.06402081528017131 0.0890208152801713 -0.01)
    (-0.06548700678495101 0.08734894429314825 -0.01)
    (-0.06672243186433546 0.0855 -0.01)
    (-0.06770595205269188 0.08350561835020653 -0.01)
    (-0.06842073904691416 0.08139992376674286 -0.01)
    (-0.06885456264335478 0.07921894526774087 -0.01)
    (-0.069 0.077 -0.01)
    (-0.069 -0.077 -0.01)
    (-0.06885456264335478 -0.07921894526774087 -0.01)
    (-0.06842073904691418 -0.08139992376674285 -0.01)
    (-0.06770595205269188 -0.08350561835020652 -0.01)
    (-0.06672243186433546 -0.08549999999999999 -0.01)
    (-0.06548700678495101 -0.08734894429314825 -0.01)
    (-0.06402081528017131 -0.0890208152801713 -0.01)
    (-0.06234894429314826 -0.090487006784951 -0.01)
    (-0.06050000000000001 -0.09172243186433546 -0.01)
    (-0.05850561835020654 -0.09270595205269187 -0.01)
    (-0.056399923766742854 -0.09342073904691417 -0.01)
    (-0.05421894526774088 -0.09385456264335477 -0.01)
    (-0.052000000000000005 -0.094 -0.01)
    (0.052000000000000005 -0.094 -0.01)
    (0.054218945267740876 -0.09385456264335477 -0.01)
    (0.05639992376674285 -0.09342073904691417 -0.01)
    (0.05850561835020653 -0.09270595205269187 -0.01)
    (0.060500000000000005 -0.09172243186433546 -0.01)
    (0.06234894429314825 -0.090487006784951 -0.01)
    (0.06402081528017131 -0.0890208152801713 -0.01)
    (0.06548700678495101 -0.08734894429314825 -0.01)
    (0.06672243186433546 -0.0855 -0.01)
    (0.06770595205269188 -0.08350561835020653 -0.01)
    (0.06842073904691418 -0.08139992376674285 -0.01)
    (0.06885456264335478 -0.07921894526774088 -0.01)
    (0.069 -0.077 -0.01)
    (0.07 0.077 -0.01)
    (0.0698460075047286 0.07934947145996092 -0.01)
    (0.06938666487320323 0.08165874281184538 -0.01)
    (0.06862983158520317 0.08388830178257162 -0.01)
    (0.0675884572681199 0.086 -0.01)
    (0.06628036012524224 0.08795770572215697 -0.01)
    (0.06472792206135786 0.08972792206135785 -0.01)
    (0.06295770572215698 0.09128036012524224 -0.01)
    (0.061000000000000006 0.0925884572681199 -0.01)
    (0.05888830178257162 0.09362983158520316 -0.01)
    (0.05665874281184538 0.09438666487320323 -0.01)
    (0.054349471459960934 0.09484600750472859 -0.01)
    (0.052000000000000005 0.095 -0.01)
    (-0.052000000000000005 0.095 -0.01)
    (-0.054349471459960934 0.09484600750472859 -0.01)
    (-0.056658742811845374 0.09438666487320323 -0.01)
    (-0.05888830178257162 0.09362983158520316 -0.01)
    (-0.061 0.0925884572681199 -0.01)
    (-0.06295770572215698 0.09128036012524224 -0.01)
    (-0.06472792206135786 0.08972792206135785 -0.01)
    (-0.06628036012524224 0.08795770572215697 -0.01)
    (-0.0675884572681199 0.08600000000000001 -0.01)
    (-0.06862983158520317 0.08388830178257162 -0.01)
    (-0.06938666487320323 0.08165874281184538 -0.01)
    (-0.0698460075047286 0.07934947145996092 -0.01)
    (-0.07 0.077 -0.01)
    (-0.07 -0.077 -0.01)
    (-0.0698460075047286 -0.07934947145996092 -0.01)
    (-0.06938666487320323 -0.08165874281184538 -0.01)
    (-0.06862983158520317 -0.08388830178257162 -0.01)
    (-0.0675884572681199 -0.086 -0.01)
    (-0.06628036012524224 -0.08795770572215697 -0.01)
    (-0.06472792206135787 -0.08972792206135785 -0.01)
    (-0.06295770572215698 -0.09128036012524222 -0.01)
    (-0.06100000000000001 -0.09258845726811989 -0.01)
    (-0.05888830178257163 -0.09362983158520316 -0.01)
    (-0.056658742811845374 -0.09438666487320323 -0.01)
    (-0.054349471459960934 -0.09484600750472859 -0.01)
    (-0.052000000000000005 -0.095 -0.01)
    (0.052000000000000005 -0.095 -0.01)
    (0.05434947145996093 -0.09484600750472859 -0.01)
    (0.05665874281184537 -0.09438666487320324 -0.01)
    (0.05888830178257162 -0.09362983158520316 -0.01)
    (0.061000000000000006 -0.0925884572681199 -0.01)
    (0.06295770572215698 -0.09128036012524224 -0.01)
    (0.06472792206135786 -0.08972792206135786 -0.01)
    (0.06628036012524223 -0.08795770572215697 -0.01)
    (0.06758845726811989 -0.08600000000000001 -0.01)
    (0.06862983158520317 -0.08388830178257163 -0.01)
    (0.06938666487320323 -0.08165874281184538 -0.01)
    (0.0698460075047286 -0.07934947145996094 -0.01)
    (0.07 -0.077 -0.01)
    (0.07 0.077 -0.009000000000000001)
    (0.0698460075047286 0.07934947145996092 -0.009000000000000001)
    (0.06938666487320323 0.08165874281184538 -0.009000000000000001)
    (0.06862983158520317 0.08388830178257162 -0.009000000000000001)
    (0.0675884572681199 0.086 -0.009000000000000001)
    (0.06628036012524224 0.08795770572215697 -0.009000000000000001)
    (0.06472792206135786 0.08972792206135785 -0.009000000000000001)
    (0.06295770572215698 0.09128036012524224 -0.009000000000000001)
    (0.061000000000000006 0.0925884572681199 -0.009000000000000001)
    (0.05888830178257162 0.09362983158520316 -0.009000000000000001)
    (0.05665874281184538 0.09438666487320323 -0.009000000000000001)
    (0.054349471459960934 0.09484600750472859 -0.009000000000000001)
    (0.052000000000000005 0.095 -0.009000000000000001)
    (-0.052000000000000005 0.095 -0.009000000000000001)
    (-0.054349471459960934 0.09484600750472859 -0.009000000000000001)
    (-0.056658742811845374 0.09438666487320323 -0.009000000000000001)
    (-0.05888830178257162 0.09362983158520316 -0.009000000000000001)
    (-0.061 0.0925884572681199 -0.009000000000000001)
    (-0.06295770572215698 0.09128036012524224 -0.009000000000000001)
    (-0.06472792206135786 0.08972792206135785 -0.009000000000000001)
    (-0.06628036012524224 0.08795770572215697 -0.009000000000000001)
    (-0.0675884572681199 0.08600000000000001 -0.009000000000000001)
    (-0.06862983158520317 0.08388830178257162 -0.009000000000000001)
    (-0.06938666487320323 0.08165874281184538 -0.009000000000000001)
    (-0.0698460075047286 0.07934947145996092 -0.009000000000000001)
    (-0.07 0.077 -0.009000000000000001)
    (-0.07 -0.077 -0.009000000000000001)
    (-0.0698460075047286 -0.07934947145996092 -0.009000000000000001)
    (-0.06938666487320323 -0.08165874281184538 -0.009000000000000001)
    (-0.06862983158520317 -0.08388830178257162 -0.009000000000000001)
    (-0.0675884572681199 -0.086 -0.009000000000000001)
    (-0.06628036012524224 -0.08795770572215697 -0.009000000000000001)
    (-0.06472792206135787 -0.08972792206135785 -0.009000000000000001)
    (-0.06295770572215698 -0.09128036012524222 -0.009000000000000001)
    (-0.06100000000000001 -0.09258845726811989 -0.009000000000000001)
    (-0.05888830178257163 -0.09362983158520316 -0.009000000000000001)
    (-0.056658742811845374 -0.09438666487320323 -0.009000000000000001)
    (-0.054349471459960934 -0.09484600750472859 -0.009000000000000001)
    (-0.052000000000000005 -0.095 -0.009000000000000001)
    (0.052000000000000005 -0.095 -0.009000000000000001)
    (0.05434947145996093 -0.09484600750472859 -0.009000000000000001)
    (0.05665874281184537 -0.09438666487320324 -0.009000000000000001)
    (0.05888830178257162 -0.09362983158520316 -0.009000000000000001)
    (0.061000000000000006 -0.0925884572681199 -0.009000000000000001)
    (0.06295770572215698 -0.09128036012524224 -0.009000000000000001)
    (0.06472792206135786 -0.08972792206135786 -0.009000000000000001)
    (0.06628036012524223 -0.08795770572215697 -0.009000000000000001)
    (0.06758845726811989 -0.08600000000000001 -0.009000000000000001)
    (0.06862983158520317 -0.08388830178257163 -0.009000000000000001)
    (0.06938666487320323 -0.08165874281184538 -0.009000000000000001)
    (0.0698460075047286 -0.07934947145996094 -0.009000000000000001)
    (0.07 -0.077 -0.009000000000000001)
    (0.07 0.077 -0.008000000000000002)
    (0.0698460075047286 0.07934947145996092 -0.008000000000000002)
    (0.06938666487320323 0.08165874281184538 -0.008000000000000002)
    (0.06862983158520317 0.08388830178257162 -0.008000000000000002)
    (0.0675884572681199 0.086 -0.008000000000000002)
    (0.06628036012524224 0.08795770572215697 -0.008000000000000002)
    (0.06472792206135786 0.08972792206135785 -0.008000000000000002)
    (0.06295770572215698 0.09128036012524224 -0.008000000000000002)