/*--------------------------------*- C++ -*----------------------------------*\
| =========                 |                                                 |
| \\      /  F ield         | foam-extend: Open Source CFD                    |
|  \\    /   O peration     | Version:     3.1                                |
|   \\  /    A nd           | Web:         http://www.extend-project.de       |
|    \\/     M anipulation  |                                                 |
\*---------------------------------------------------------------------------*/
FoamFile
{
    version     2.0;
    format      ascii;
    class       volScalarField;
    object      omega;
}
// * * * * * * * * * * * * * * * * * * * * * * * * * * * * * * * * * * * * * //

dimensions      [0 0 -1 0 0 0 0];

internalField   uniform 0;

boundaryField
{
    trackedSurface
    {
        type            slip;
    }
    movingWall
    {
        type            omegaWallFunction;
        value           $internalField;
    }
    fixedWall
    {
        type            omegaWallFunction;
        value           $internalField;
    }
    "procBoundary.*"
    {
        type            processor;
        value           uniform 0;
    }
}

// ************************************************************************* //
