/*--------------------------------*- C++ -*----------------------------------*\
| =========                 |                                                 |
| \\      /  F ield         | foam-extend: Open Source CFD                    |
|  \\    /   O peration     | Version:     4.0                                |
|   \\  /    A nd           | Web:         http://www.extend-project.de       |
|    \\/     M anipulation  | For copyright notice see file Copyright         |
\*---------------------------------------------------------------------------*/
FoamFile
{
    version     2.0;
    format      ascii;
    class       dictionary;
    object      blockMeshDict;
}
// * * * * * * * * * * * * * * * * * * * * * * * * * * * * * * * * * * * * * //


convertToMeters 0.001;

vertices
(
    ( -180.0 -220.0 -115.0 ) // # 0
    ( 180.0 -220.0 -115.0 ) // # 1
    ( -180.0 -220.0 160.0 ) // # 2
    ( 180.0 -220.0 160.0 ) // # 3
    ( -180.0 220.0 -115.0 ) // # 4
    ( 180.0 220.0 -115.0 ) // # 5
    ( -180.0 220.0 160.0 ) // # 6
    ( 180.0 220.0 160.0 ) // # 7
);

blocks
(
    hex ( 0 1 5 4 2 3 7 6 ) background ( 36 44 28 ) simpleGrading ( 1.0 1.0 1.0 ) // # 0
);

edges
(
);

boundary
(
    infinity
    {
        type patch;
        faces
        (
            ( 0 1 3 2 )
            ( 5 4 6 7 )
            ( 0 4 6 2 )
            ( 1 5 7 3 )
            ( 0 1 5 4 )
            ( 2 3 7 6 )
        );
    }
);

mergePatchPairs
(
);

// ************************************************************************* //


