/*--------------------------------*- C++ -*----------------------------------*\
| =========                 |                                                 |
| \\      /  F ield         | OpenFOAM: The Open Source CFD Toolbox           |
|  \\    /   O peration     | Version:  4.x                                   |
|   \\  /    A nd           | Web:      www.OpenFOAM.org                      |
|    \\/     M anipulation  |                                                 |
\*---------------------------------------------------------------------------*/
FoamFile
{
    version     2.0;
    format      ascii;
    class       polyBoundaryMesh;
    location    "constant/polyMesh";
    object      boundary;
}
// * * * * * * * * * * * * * * * * * * * * * * * * * * * * * * * * * * * * * //

6
(
    bottom
    {
        type            wall;
        inGroups        1(wall);
        nFaces          1600;
        startFace       385824;
    }
    top
    {
        type            wall;
        inGroups        1(wall);
        nFaces          1600;
        startFace       387424;
    }
    mantle
    {
        type            wall;
        inGroups        1(wall);
        nFaces          3200;
        startFace       389024;
    }
    front
    {
        type            wall;
        inGroups        1(wall);
        nFaces          1600;
        startFace       392224;
    }
    back
    {
        type            wall;
        inGroups        1(wall);
        nFaces          1600;
        startFace       393824;
    }
    liquid
    {
        type            wall;
        inGroups        1(wall);
        nFaces          416;
        startFace       395424;
    }
)

// ************************************************************************* //
