/*--------------------------------*- C++ -*----------------------------------*\
| =========                 |                                                 |
| \\      /  F ield         | OpenFOAM: The Open Source CFD Toolbox           |
|  \\    /   O peration     | Version:  2.3.x                                 |
|   \\  /    A nd           | Web:      www.OpenFOAM.org                      |
|    \\/     M anipulation  |                                                 |
\*---------------------------------------------------------------------------*/
FoamFile
{
    version     2.0;
    format      ascii;
    class       featureEdgeMesh;
    location    "constant/triSurface";
    object      geometry_free.eMesh;
}
// * * * * * * * * * * * * * * * * * * * * * * * * * * * * * * * * * * * * * //


// points:

104
(
(-0.035 -0.068999998 0)
(-0.034948699 -0.069783203 0)
(-0.034948699 -0.069783203 0.090000004)
(-0.035 -0.068999998 0.090000004)
(-0.034795601 -0.0705529 0.090000004)
(-0.034795601 -0.0705529 0)
(-0.034543298 -0.071296103 0.090000004)
(-0.034543298 -0.071296103 0)
(-0.034196202 -0.071999997 0.090000004)
(-0.034196202 -0.071999997 0)
(-0.033760101 -0.072652601 0.090000004)
(-0.033242598 -0.073242597 0.090000004)
(-0.033760101 -0.072652601 0)
(-0.033242598 -0.073242597 0)
(-0.032652602 -0.0737601 0.090000004)
(-0.032652602 -0.0737601 0)
(-0.032000002 -0.074196197 0.090000004)
(-0.032000002 -0.074196197 0)
(-0.0312961 -0.074543297 0.090000004)
(-0.0312961 -0.074543297 0)
(-0.030552899 -0.074795596 0.090000004)
(-0.030552899 -0.074795596 0)
(-0.0297832 -0.074948698 0.090000004)
(-0.028999999 -0.075000003 0.090000004)
(-0.0297832 -0.074948698 0)
(-0.028999999 -0.075000003 0)
(0.028999999 -0.075000003 0.090000004)
(0.028999999 -0.075000003 0)
(0.0297832 -0.074948698 0)
(0.0297832 -0.074948698 0.090000004)
(0.030552899 -0.074795596 0.090000004)
(0.030552899 -0.074795596 0)
(0.0312961 -0.074543297 0.090000004)
(0.0312961 -0.074543297 0)
(0.032000002 -0.074196197 0.090000004)
(0.032000002 -0.074196197 0)
(0.032652602 -0.0737601 0.090000004)
(0.032652602 -0.0737601 0)
(0.033242598 -0.073242597 0.090000004)
(0.033242598 -0.073242597 0)
(0.033760101 -0.072652601 0.090000004)
(0.034196202 -0.071999997 0.090000004)
(0.033760101 -0.072652601 0)
(0.034196202 -0.071999997 0)
(0.034543298 -0.071296103 0.090000004)
(0.034543298 -0.071296103 0)
(0.034795601 -0.0705529 0.090000004)
(0.034795601 -0.0705529 0)
(0.034948699 -0.069783203 0.090000004)
(0.035 -0.068999998 0.090000004)
(0.034948699 -0.069783203 0)
(0.035 -0.068999998 0)
(0.035 0.068999998 0)
(0.035 0.068999998 0.090000004)
(0.034948699 0.069783203 0)
(0.034948699 0.069783203 0.090000004)
(0.034795601 0.0705529 0.090000004)
(0.034543298 0.071296103 0.090000004)
(0.034795601 0.0705529 0)
(0.034543298 0.071296103 0)
(0.034196202 0.071999997 0.090000004)
(0.033760101 0.072652601 0.090000004)
(0.034196202 0.071999997 0)
(0.033760101 0.072652601 0)
(0.033242598 0.073242597 0.090000004)
(0.032652602 0.0737601 0.090000004)
(0.033242598 0.073242597 0)
(0.032652602 0.0737601 0)
(0.032000002 0.074196197 0.090000004)
(0.032000002 0.074196197 0)
(0.0312961 0.074543297 0.090000004)
(0.030552899 0.074795596 0.090000004)
(0.0312961 0.074543297 0)
(0.030552899 0.074795596 0)
(0.0297832 0.074948698 0.090000004)
(0.0297832 0.074948698 0)
(0.028999999 0.075000003 0.090000004)
(0.028999999 0.075000003 0)
(-0.028999999 0.075000003 0.090000004)
(-0.028999999 0.075000003 0)
(-0.0297832 0.074948698 0)
(-0.0297832 0.074948698 0.090000004)
(-0.030552899 0.074795596 0.090000004)
(-0.0312961 0.074543297 0.090000004)
(-0.030552899 0.074795596 0)
(-0.032000002 0.074196197 0.090000004)
(-0.0312961 0.074543297 0)
(-0.032000002 0.074196197 0)
(-0.032652602 0.0737601 0.090000004)
(-0.033242598 0.073242597 0.090000004)
(-0.032652602 0.0737601 0)
(-0.033242598 0.073242597 0)
(-0.033760101 0.072652601 0.090000004)
(-0.034196202 0.071999997 0.090000004)
(-0.033760101 0.072652601 0)
(-0.034196202 0.071999997 0)
(-0.034543298 0.071296103 0.090000004)
(-0.034543298 0.071296103 0)
(-0.034795601 0.0705529 0.090000004)
(-0.034948699 0.069783203 0.090000004)
(-0.034795601 0.0705529 0)
(-0.034948699 0.069783203 0)
(-0.035 0.068999998 0.090000004)
(-0.035 0.068999998 0)
)


// edges:

104
(
(0 1)
(2 3)
(4 2)
(1 5)
(6 4)
(5 7)
(8 6)
(7 9)
(10 8)
(11 10)
(9 12)
(12 13)
(14 11)
(13 15)
(16 14)
(15 17)
(18 16)
(17 19)
(20 18)
(19 21)
(22 20)
(23 22)
(21 24)
(24 25)
(26 23)
(25 27)
(27 28)
(29 26)
(30 29)
(28 31)
(32 30)
(31 33)
(34 32)
(33 35)
(36 34)
(35 37)
(38 36)
(37 39)
(40 38)
(41 40)
(39 42)
(42 43)
(44 41)
(43 45)
(46 44)
(45 47)
(48 46)
(49 48)
(47 50)
(50 51)
(51 52)
(53 49)
(52 54)
(55 53)
(56 55)
(57 56)
(54 58)
(58 59)
(60 57)
(61 60)
(59 62)
(62 63)
(64 61)
(65 64)
(63 66)
(66 67)
(68 65)
(67 69)
(70 68)
(71 70)
(69 72)
(72 73)
(74 71)
(73 75)
(76 74)
(75 77)
(78 76)
(77 79)
(79 80)
(81 78)
(82 81)
(83 82)
(80 84)
(85 83)
(84 86)
(86 87)
(88 85)
(89 88)
(87 90)
(90 91)
(92 89)
(93 92)
(91 94)
(94 95)
(96 93)
(95 97)
(98 96)
(99 98)
(97 100)
(100 101)
(102 99)
(101 103)
(103 0)
(3 102)
)

// * * * * * * * * * * * * * * * * * * * * * * * * * * * * * * * * * * * * * //


// ************************************************************************* //
