/*--------------------------------*- C++ -*----------------------------------*\
| =========                 |                                                 |
| \\      /  F ield         | OpenFOAM: The Open Source CFD Toolbox           |
|  \\    /   O peration     | Version:  2.3.x                                 |
|   \\  /    A nd           | Web:      www.OpenFOAM.org                      |
|    \\/     M anipulation  |                                                 |
\*---------------------------------------------------------------------------*/
FoamFile
{
    version     2.0;
    format      ascii;
    class       featureEdgeMesh;
    location    "constant/triSurface";
    object      geometry_coil0.eMesh;
}
// * * * * * * * * * * * * * * * * * * * * * * * * * * * * * * * * * * * * * //


// points:

192
(
(-0.067500003 0.112 0.0074999998)
(-0.067500003 -0.112 0.0074999998)
(-0.067500003 -0.112 0.0125)
(-0.067500003 0.112 0.0125)
(-0.057 0.1225 0.0074999998)
(-0.058029201 0.122449 0.0074999998)
(-0.058029201 0.122449 0.0125)
(-0.057 0.1225 0.0125)
(-0.059048399 0.122298 0.0125)
(-0.060047999 0.122048 0.0125)
(-0.059048399 0.122298 0.0074999998)
(-0.061018199 0.121701 0.0125)
(-0.060047999 0.122048 0.0074999998)
(-0.0619497 0.12126 0.0125)
(-0.061018199 0.121701 0.0074999998)
(-0.062833503 0.12073 0.0125)
(-0.0619497 0.12126 0.0074999998)
(-0.062833503 0.12073 0.0074999998)
(-0.063661098 0.120117 0.0125)
(-0.064424597 0.119425 0.0125)
(-0.063661098 0.120117 0.0074999998)
(-0.064424597 0.119425 0.0074999998)
(-0.065116599 0.118661 0.0125)
(-0.0657304 0.117833 0.0125)
(-0.065116599 0.118661 0.0074999998)
(-0.0657304 0.117833 0.0074999998)
(-0.066260204 0.11695 0.0125)
(-0.066260204 0.11695 0.0074999998)
(-0.066700697 0.116018 0.0125)
(-0.066700697 0.116018 0.0074999998)
(-0.067047901 0.115048 0.0125)
(-0.067047901 0.115048 0.0074999998)
(-0.067298204 0.114048 0.0125)
(-0.067298204 0.114048 0.0074999998)
(-0.067449398 0.113029 0.0125)
(-0.067449398 0.113029 0.0074999998)
(0.057 0.1225 0.0074999998)
(0.057 0.1225 0.0125)
(0.067449398 0.113029 0.0125)
(0.067500003 0.112 0.0125)
(0.067298204 0.114048 0.0125)
(0.067500003 0.112 0.0074999998)
(0.067449398 0.113029 0.0074999998)
(0.067298204 0.114048 0.0074999998)
(0.067047901 0.115048 0.0125)
(0.067047901 0.115048 0.0074999998)
(0.066700697 0.116018 0.0125)
(0.066700697 0.116018 0.0074999998)
(0.066260204 0.11695 0.0125)
(0.0657304 0.117833 0.0125)
(0.066260204 0.11695 0.0074999998)
(0.0657304 0.117833 0.0074999998)
(0.065116599 0.118661 0.0125)
(0.065116599 0.118661 0.0074999998)
(0.064424597 0.119425 0.0125)
(0.064424597 0.119425 0.0074999998)
(0.063661098 0.120117 0.0125)
(0.063661098 0.120117 0.0074999998)
(0.062833503 0.12073 0.0125)
(0.062833503 0.12073 0.0074999998)
(0.0619497 0.12126 0.0125)
(0.0619497 0.12126 0.0074999998)
(0.061018199 0.121701 0.0125)
(0.060047999 0.122048 0.0125)
(0.061018199 0.121701 0.0074999998)
(0.060047999 0.122048 0.0074999998)
(0.059048399 0.122298 0.0125)
(0.059048399 0.122298 0.0074999998)
(0.058029201 0.122449 0.0125)
(0.058029201 0.122449 0.0074999998)
(0.067500003 -0.112 0.0074999998)
(0.067500003 -0.112 0.0125)
(0.058029201 -0.122449 0.0125)
(0.057 -0.1225 0.0125)
(0.057 -0.1225 0.0074999998)
(0.058029201 -0.122449 0.0074999998)
(0.059048399 -0.122298 0.0125)
(0.060047999 -0.122048 0.0125)
(0.059048399 -0.122298 0.0074999998)
(0.060047999 -0.122048 0.0074999998)
(0.061018199 -0.121701 0.0125)
(0.061018199 -0.121701 0.0074999998)
(0.0619497 -0.12126 0.0125)
(0.0619497 -0.12126 0.0074999998)
(0.062833503 -0.12073 0.0125)
(0.062833503 -0.12073 0.0074999998)
(0.063661098 -0.120117 0.0125)
(0.063661098 -0.120117 0.0074999998)
(0.064424597 -0.119425 0.0125)
(0.065116599 -0.118661 0.0125)
(0.064424597 -0.119425 0.0074999998)
(0.065116599 -0.118661 0.0074999998)
(0.0657304 -0.117833 0.0125)
(0.0657304 -0.117833 0.0074999998)
(0.066260204 -0.11695 0.0125)
(0.066700697 -0.116018 0.0125)
(0.066260204 -0.11695 0.0074999998)
(0.066700697 -0.116018 0.0074999998)
(0.067047901 -0.115048 0.0125)
(0.067047901 -0.115048 0.0074999998)
(0.067298204 -0.114048 0.0125)
(0.067449398 -0.113029 0.0125)
(0.067298204 -0.114048 0.0074999998)
(0.067449398 -0.113029 0.0074999998)
(-0.057 -0.1225 0.0074999998)
(-0.057 -0.1225 0.0125)
(-0.067449398 -0.113029 0.0125)
(-0.067298204 -0.114048 0.0125)
(-0.067449398 -0.113029 0.0074999998)
(-0.067298204 -0.114048 0.0074999998)
(-0.067047901 -0.115048 0.0125)
(-0.066700697 -0.116018 0.0125)
(-0.067047901 -0.115048 0.0074999998)
(-0.066260204 -0.11695 0.0125)
(-0.066700697 -0.116018 0.0074999998)
(-0.066260204 -0.11695 0.0074999998)
(-0.0657304 -0.117833 0.0125)
(-0.065116599 -0.118661 0.0125)
(-0.0657304 -0.117833 0.0074999998)
(-0.065116599 -0.118661 0.0074999998)
(-0.064424597 -0.119425 0.0125)
(-0.063661098 -0.120117 0.0125)
(-0.064424597 -0.119425 0.0074999998)
(-0.063661098 -0.120117 0.0074999998)
(-0.062833503 -0.12073 0.0125)
(-0.062833503 -0.12073 0.0074999998)
(-0.0619497 -0.12126 0.0125)
(-0.061018199 -0.121701 0.0125)
(-0.0619497 -0.12126 0.0074999998)
(-0.061018199 -0.121701 0.0074999998)
(-0.060047999 -0.122048 0.0125)
(-0.060047999 -0.122048 0.0074999998)
(-0.059048399 -0.122298 0.0125)
(-0.058029201 -0.122449 0.0125)
(-0.059048399 -0.122298 0.0074999998)
(-0.058029201 -0.122449 0.0074999998)
(-0.0625 -0.112 0.0125)
(-0.062312599 -0.113424 0.0125)
(-0.062312599 -0.113424 0.0074999998)
(-0.0625 -0.112 0.0074999998)
(-0.0617631 -0.11475 0.0125)
(-0.060889099 -0.115889 0.0125)
(-0.0617631 -0.11475 0.0074999998)
(-0.060889099 -0.115889 0.0074999998)
(-0.059749998 -0.116763 0.0125)
(-0.059749998 -0.116763 0.0074999998)
(-0.058423501 -0.117313 0.0125)
(-0.057 -0.1175 0.0125)
(-0.058423501 -0.117313 0.0074999998)
(-0.057 -0.1175 0.0074999998)
(0.057 -0.1175 0.0074999998)
(0.057 -0.1175 0.0125)
(0.058423501 -0.117313 0.0125)
(0.058423501 -0.117313 0.0074999998)
(0.059749998 -0.116763 0.0125)
(0.059749998 -0.116763 0.0074999998)
(0.060889099 -0.115889 0.0125)
(0.060889099 -0.115889 0.0074999998)
(0.0617631 -0.11475 0.0125)
(0.0617631 -0.11475 0.0074999998)
(0.062312599 -0.113424 0.0125)
(0.0625 -0.112 0.0125)
(0.062312599 -0.113424 0.0074999998)
(0.0625 -0.112 0.0074999998)
(0.0625 0.112 0.0074999998)
(0.0625 0.112 0.0125)
(0.062312599 0.113424 0.0074999998)
(0.062312599 0.113424 0.0125)
(0.0617631 0.11475 0.0125)
(0.0617631 0.11475 0.0074999998)
(0.060889099 0.115889 0.0125)
(0.060889099 0.115889 0.0074999998)
(0.059749998 0.116763 0.0125)
(0.059749998 0.116763 0.0074999998)
(0.058423501 0.117313 0.0125)
(0.058423501 0.117313 0.0074999998)
(0.057 0.1175 0.0125)
(0.057 0.1175 0.0074999998)
(-0.057 0.1175 0.0074999998)
(-0.057 0.1175 0.0125)
(-0.058423501 0.117313 0.0125)
(-0.059749998 0.116763 0.0125)
(-0.058423501 0.117313 0.0074999998)
(-0.059749998 0.116763 0.0074999998)
(-0.060889099 0.115889 0.0125)
(-0.060889099 0.115889 0.0074999998)
(-0.0617631 0.11475 0.0125)
(-0.0617631 0.11475 0.0074999998)
(-0.062312599 0.113424 0.0125)
(-0.062312599 0.113424 0.0074999998)
(-0.0625 0.112 0.0125)
(-0.0625 0.112 0.0074999998)
)


// edges:

192
(
(0 1)
(2 3)
(4 5)
(6 7)
(8 6)
(9 8)
(5 10)
(11 9)
(10 12)
(13 11)
(12 14)
(15 13)
(14 16)
(16 17)
(18 15)
(19 18)
(17 20)
(20 21)
(22 19)
(23 22)
(21 24)
(24 25)
(26 23)
(25 27)
(28 26)
(27 29)
(30 28)
(29 31)
(32 30)
(31 33)
(34 32)
(33 35)
(3 34)
(35 0)
(36 4)
(7 37)
(38 39)
(40 38)
(41 42)
(42 43)
(44 40)
(43 45)
(46 44)
(45 47)
(48 46)
(49 48)
(47 50)
(50 51)
(52 49)
(51 53)
(54 52)
(53 55)
(56 54)
(55 57)
(58 56)
(57 59)
(60 58)
(59 61)
(62 60)
(63 62)
(61 64)
(64 65)
(66 63)
(65 67)
(68 66)
(67 69)
(37 68)
(69 36)
(70 41)
(39 71)
(72 73)
(74 75)
(76 72)
(77 76)
(75 78)
(78 79)
(80 77)
(79 81)
(82 80)
(81 83)
(84 82)
(83 85)
(86 84)
(85 87)
(88 86)
(89 88)
(87 90)
(90 91)
(92 89)
(91 93)
(94 92)
(95 94)
(93 96)
(96 97)
(98 95)
(97 99)
(100 98)
(101 100)
(99 102)
(102 103)
(71 101)
(103 70)
(104 74)
(73 105)
(106 2)
(107 106)
(1 108)
(108 109)
(110 107)
(111 110)
(109 112)
(113 111)
(112 114)
(114 115)
(116 113)
(117 116)
(115 118)
(118 119)
(120 117)
(121 120)
(119 122)
(122 123)
(124 121)
(123 125)
(126 124)
(127 126)
(125 128)
(128 129)
(130 127)
(129 131)
(132 130)
(133 132)
(131 134)
(134 135)
(105 133)
(135 104)
(136 137)
(138 139)
(137 140)
(140 141)
(142 138)
(143 142)
(141 144)
(145 143)
(144 146)
(146 147)
(148 145)
(149 148)
(150 149)
(147 151)
(151 152)
(153 150)
(152 154)
(155 153)
(154 156)
(157 155)
(156 158)
(159 157)
(158 160)
(160 161)
(162 159)
(163 162)
(164 163)
(161 165)
(166 164)
(165 167)
(167 168)
(169 166)
(168 170)
(171 169)
(170 172)
(173 171)
(172 174)
(175 173)
(174 176)
(177 175)
(178 177)
(176 179)
(179 180)
(180 181)
(182 178)
(183 182)
(181 184)
(185 183)
(184 186)
(187 185)
(186 188)
(189 187)
(188 190)
(191 189)
(139 191)
(190 136)
)

// * * * * * * * * * * * * * * * * * * * * * * * * * * * * * * * * * * * * * //


// ************************************************************************* //
