/*--------------------------------*- C++ -*----------------------------------*\
| =========                 |                                                 |
| \\      /  F ield         | foam-extend: Open Source CFD                    |
|  \\    /   O peration     | Version:     4.0                                |
|   \\  /    A nd           | Web:         http://www.foam-extend.org         |
|    \\/     M anipulation  | For copyright notice see file Copyright         |
\*---------------------------------------------------------------------------*/
FoamFile
{
    version     2.0;
    format      ascii;
    class       dictionary;
    object      blockMeshDict;
}
// * * * * * * * * * * * * * * * * * * * * * * * * * * * * * * * * * * * * * //

convertToMeters 1;

vertices
(
    ( 0.0 0.0 0.0223607 ) // # 0
    ( 1.0 0.0 0.0223607 ) // # 1
    ( 0.0 0.0 0.0670821 ) // # 2
    ( 1.0 0.0 0.0670821 ) // # 3
    ( 0.0 1.0 0.0223607 ) // # 4
    ( 2.0 1.0 0.0223607 ) // # 5
    ( 0.0 1.0 0.0670821 ) // # 6
    ( 2.0 1.0 0.0670821 ) // # 7
    ( 3.0 0.0 0.0223607 ) // # 8
    ( 3.0 1.0 0.0223607 ) // # 9
    ( 3.0 0.0 0.0670821 ) // # 10
    ( 3.0 1.0 0.0670821 ) // # 11
);

blocks
(
    hex ( 0 1 5 4 2 3 7 6 ) ( 20 20 1 ) simpleGrading ( 1.0 1.0 1.0 ) // # 0
    hex ( 1 8 9 5 3 10 11 7 ) ( 20 20 1 ) simpleGrading ( 1.0 1.0 1.0 ) // # 1
);

edges
(
);

boundary
(
    bottom
    {
        type patch;
        faces
        (
            ( 0 1 3 2 )
            ( 1 8 10 3 )
        );
    }

    top
    {
        type patch;
        faces
        (
            ( 5 4 6 7 )
            ( 9 5 7 11 )
        );
    }

    left
    {
        type patch;
        faces
        (
            ( 0 4 6 2 )
        );
    }

    right
    {
        type patch;
        faces
        (
            ( 8 9 11 10 )
        );
    }

    frontAndBack
    {
        type empty;
        faces
        (
            ( 0 1 5 4 )
            ( 1 8 9 5 )
            ( 2 3 7 6 )
            ( 3 10 11 7 )
        );
    }
);

mergePatchPairs
(
);

// ************************************************************************* //

