/*--------------------------------*- C++ -*----------------------------------*\
| =========                 |                                                 |
| \\      /  F ield         | OpenFOAM: The Open Source CFD Toolbox           |
|  \\    /   O peration     | Version:  2.3.x                                 |
|   \\  /    A nd           | Web:      www.OpenFOAM.org                      |
|    \\/     M anipulation  |                                                 |
\*---------------------------------------------------------------------------*/
FoamFile
{
    version     2.0;
    format      ascii;
    class       featureEdgeMesh;
    location    "constant/triSurface";
    object      geometry_free_static.eMesh;
}
// * * * * * * * * * * * * * * * * * * * * * * * * * * * * * * * * * * * * * //


// points:

104
(
(-0.034948699 -0.069783203 0.090000004)
(-0.035 -0.068999998 0.090000004)
(-0.034795601 -0.0705529 0.090000004)
(-0.035 -0.068999998 0.050000001)
(-0.034948699 -0.069783203 0.050000001)
(-0.034543298 -0.071296103 0.090000004)
(-0.034795601 -0.0705529 0.050000001)
(-0.034196202 -0.071999997 0.090000004)
(-0.034543298 -0.071296103 0.050000001)
(-0.033760101 -0.072652601 0.090000004)
(-0.034196202 -0.071999997 0.050000001)
(-0.033242598 -0.073242597 0.090000004)
(-0.033760101 -0.072652601 0.050000001)
(-0.032652602 -0.0737601 0.090000004)
(-0.033242598 -0.073242597 0.050000001)
(-0.032000002 -0.074196197 0.090000004)
(-0.032652602 -0.0737601 0.050000001)
(-0.0312961 -0.074543297 0.090000004)
(-0.032000002 -0.074196197 0.050000001)
(-0.030552899 -0.074795596 0.090000004)
(-0.0312961 -0.074543297 0.050000001)
(-0.0297832 -0.074948698 0.090000004)
(-0.030552899 -0.074795596 0.050000001)
(-0.0297832 -0.074948698 0.050000001)
(-0.028999999 -0.075000003 0.090000004)
(-0.028999999 -0.075000003 0.050000001)
(-0.0312961 0.074543297 0.050000001)
(-0.030552899 0.074795596 0.050000001)
(-0.0297832 0.074948698 0.050000001)
(-0.028999999 0.075000003 0.050000001)
(0.035 0.068999998 0.050000001)
(0.035 -0.068999998 0.050000001)
(-0.035 0.068999998 0.050000001)
(0.028999999 0.075000003 0.050000001)
(0.0297832 0.074948698 0.050000001)
(0.030552899 0.074795596 0.050000001)
(0.034795601 0.0705529 0.050000001)
(0.034948699 0.069783203 0.050000001)
(0.034543298 0.071296103 0.050000001)
(0.0312961 0.074543297 0.050000001)
(0.032000002 0.074196197 0.050000001)
(0.032652602 0.0737601 0.050000001)
(0.033242598 0.073242597 0.050000001)
(0.033760101 0.072652601 0.050000001)
(0.034196202 0.071999997 0.050000001)
(0.028999999 -0.075000003 0.050000001)
(0.030552899 -0.074795596 0.050000001)
(0.0297832 -0.074948698 0.050000001)
(0.0312961 -0.074543297 0.050000001)
(0.032000002 -0.074196197 0.050000001)
(0.032652602 -0.0737601 0.050000001)
(0.033242598 -0.073242597 0.050000001)
(0.033760101 -0.072652601 0.050000001)
(0.034196202 -0.071999997 0.050000001)
(0.034543298 -0.071296103 0.050000001)
(0.034795601 -0.0705529 0.050000001)
(0.034948699 -0.069783203 0.050000001)
(-0.034948699 0.069783203 0.050000001)
(-0.034795601 0.0705529 0.050000001)
(-0.034543298 0.071296103 0.050000001)
(-0.034196202 0.071999997 0.050000001)
(-0.033760101 0.072652601 0.050000001)
(-0.033242598 0.073242597 0.050000001)
(-0.032652602 0.0737601 0.050000001)
(-0.032000002 0.074196197 0.050000001)
(0.028999999 -0.075000003 0.090000004)
(0.032000002 0.074196197 0.090000004)
(0.0312961 0.074543297 0.090000004)
(0.030552899 0.074795596 0.090000004)
(0.0297832 0.074948698 0.090000004)
(0.028999999 0.075000003 0.090000004)
(-0.035 0.068999998 0.090000004)
(0.032652602 -0.0737601 0.090000004)
(0.033242598 -0.073242597 0.090000004)
(0.033760101 -0.072652601 0.090000004)
(0.035 -0.068999998 0.090000004)
(0.035 0.068999998 0.090000004)
(-0.028999999 0.075000003 0.090000004)
(0.034196202 -0.071999997 0.090000004)
(-0.0297832 0.074948698 0.090000004)
(-0.030552899 0.074795596 0.090000004)
(0.034543298 -0.071296103 0.090000004)
(0.030552899 -0.074795596 0.090000004)
(0.0312961 -0.074543297 0.090000004)
(0.032000002 -0.074196197 0.090000004)
(-0.034543298 0.071296103 0.090000004)
(-0.034795601 0.0705529 0.090000004)
(-0.034948699 0.069783203 0.090000004)
(-0.0312961 0.074543297 0.090000004)
(0.0297832 -0.074948698 0.090000004)
(-0.032000002 0.074196197 0.090000004)
(-0.032652602 0.0737601 0.090000004)
(0.034795601 -0.0705529 0.090000004)
(0.034948699 -0.069783203 0.090000004)
(-0.033242598 0.073242597 0.090000004)
(-0.033760101 0.072652601 0.090000004)
(-0.034196202 0.071999997 0.090000004)
(0.034948699 0.069783203 0.090000004)
(0.034795601 0.0705529 0.090000004)
(0.034543298 0.071296103 0.090000004)
(0.034196202 0.071999997 0.090000004)
(0.033760101 0.072652601 0.090000004)
(0.033242598 0.073242597 0.090000004)
(0.032652602 0.0737601 0.090000004)
)


// edges:

104
(
(0 1)
(2 0)
(3 4)
(5 2)
(4 6)
(7 5)
(6 8)
(9 7)
(8 10)
(11 9)
(10 12)
(13 11)
(12 14)
(15 13)
(14 16)
(17 15)
(16 18)
(19 17)
(18 20)
(21 19)
(20 22)
(22 23)
(24 21)
(23 25)
(26 27)
(28 29)
(27 28)
(30 31)
(3 32)
(29 33)
(33 34)
(34 35)
(36 37)
(38 36)
(39 40)
(35 39)
(41 42)
(40 41)
(43 44)
(42 43)
(44 38)
(37 30)
(45 25)
(46 47)
(48 46)
(49 48)
(50 49)
(51 50)
(52 51)
(53 52)
(54 53)
(55 54)
(56 55)
(31 56)
(47 45)
(32 57)
(57 58)
(58 59)
(60 61)
(59 60)
(62 63)
(61 62)
(64 26)
(63 64)
(65 24)
(66 67)
(67 68)
(68 69)
(69 70)
(71 1)
(72 73)
(73 74)
(75 76)
(70 77)
(74 78)
(77 79)
(79 80)
(78 81)
(82 83)
(83 84)
(85 86)
(86 87)
(84 72)
(80 88)
(89 82)
(88 90)
(90 91)
(81 92)
(92 93)
(87 71)
(94 95)
(95 96)
(65 89)
(96 85)
(91 94)
(93 75)
(76 97)
(97 98)
(98 99)
(99 100)
(101 102)
(102 103)
(103 66)
(100 101)
)

// * * * * * * * * * * * * * * * * * * * * * * * * * * * * * * * * * * * * * //


// ************************************************************************* //
