/*--------------------------------*- C++ -*----------------------------------*\
| =========                 |                                                 |
| \\      /  F ield         | OpenFOAM: The Open Source CFD Toolbox           |
|  \\    /   O peration     | Version:  2.3.x                                 |
|   \\  /    A nd           | Web:      www.OpenFOAM.org                      |
|    \\/     M anipulation  |                                                 |
\*---------------------------------------------------------------------------*/
FoamFile
{
    version     2.0;
    format      ascii;
    class       featureEdgeMesh;
    location    "constant/triSurface";
    object      geometry_free_no_top.eMesh;
}
// * * * * * * * * * * * * * * * * * * * * * * * * * * * * * * * * * * * * * //


// points:

104
(
(-0.034948699 -0.069783203 0.090000004)
(-0.035 -0.068999998 0.090000004)
(-0.034795601 -0.0705529 0.090000004)
(-0.034543298 -0.071296103 0.090000004)
(-0.034196202 -0.071999997 0.090000004)
(-0.033760101 -0.072652601 0.090000004)
(-0.033242598 -0.073242597 0.090000004)
(-0.032652602 -0.0737601 0.090000004)
(-0.032000002 -0.074196197 0.090000004)
(-0.0312961 -0.074543297 0.090000004)
(-0.030552899 -0.074795596 0.090000004)
(-0.0297832 -0.074948698 0.090000004)
(-0.028999999 -0.075000003 0.090000004)
(0.028999999 -0.075000003 0.090000004)
(0.0297832 -0.074948698 0.090000004)
(0.030552899 -0.074795596 0.090000004)
(0.0312961 -0.074543297 0.090000004)
(0.032000002 -0.074196197 0.090000004)
(0.032652602 -0.0737601 0.090000004)
(0.033242598 -0.073242597 0.090000004)
(0.033760101 -0.072652601 0.090000004)
(0.034196202 -0.071999997 0.090000004)
(0.034543298 -0.071296103 0.090000004)
(0.034795601 -0.0705529 0.090000004)
(0.034948699 -0.069783203 0.090000004)
(0.035 -0.068999998 0.090000004)
(0.035 0.068999998 0.090000004)
(0.034948699 0.069783203 0.090000004)
(0.034795601 0.0705529 0.090000004)
(0.034543298 0.071296103 0.090000004)
(0.034196202 0.071999997 0.090000004)
(0.033760101 0.072652601 0.090000004)
(0.033242598 0.073242597 0.090000004)
(0.032652602 0.0737601 0.090000004)
(0.032000002 0.074196197 0.090000004)
(0.0312961 0.074543297 0.090000004)
(0.030552899 0.074795596 0.090000004)
(0.0297832 0.074948698 0.090000004)
(0.028999999 0.075000003 0.090000004)
(-0.028999999 0.075000003 0.090000004)
(-0.0297832 0.074948698 0.090000004)
(-0.030552899 0.074795596 0.090000004)
(-0.0312961 0.074543297 0.090000004)
(-0.032000002 0.074196197 0.090000004)
(-0.032652602 0.0737601 0.090000004)
(-0.033242598 0.073242597 0.090000004)
(-0.033760101 0.072652601 0.090000004)
(-0.034196202 0.071999997 0.090000004)
(-0.034543298 0.071296103 0.090000004)
(-0.034795601 0.0705529 0.090000004)
(-0.034948699 0.069783203 0.090000004)
(-0.035 0.068999998 0.090000004)
(-0.035 -0.068999998 0.02)
(-0.034948699 -0.069783203 0.02)
(-0.034795601 -0.0705529 0.02)
(-0.034543298 -0.071296103 0.02)
(-0.034196202 -0.071999997 0.02)
(-0.033760101 -0.072652601 0.02)
(-0.033242598 -0.073242597 0.02)
(-0.032652602 -0.0737601 0.02)
(-0.032000002 -0.074196197 0.02)
(-0.0312961 -0.074543297 0.02)
(-0.030552899 -0.074795596 0.02)
(-0.0297832 -0.074948698 0.02)
(-0.028999999 -0.075000003 0.02)
(0.028999999 -0.075000003 0.02)
(0.0297832 -0.074948698 0.02)
(0.030552899 -0.074795596 0.02)
(0.0312961 -0.074543297 0.02)
(0.032000002 -0.074196197 0.02)
(0.032652602 -0.0737601 0.02)
(0.033242598 -0.073242597 0.02)
(0.033760101 -0.072652601 0.02)
(0.034196202 -0.071999997 0.02)
(0.034543298 -0.071296103 0.02)
(0.034795601 -0.0705529 0.02)
(0.034948699 -0.069783203 0.02)
(0.035 -0.068999998 0.02)
(0.035 0.068999998 0.02)
(0.034948699 0.069783203 0.02)
(0.034795601 0.0705529 0.02)
(0.034543298 0.071296103 0.02)
(0.034196202 0.071999997 0.02)
(0.033760101 0.072652601 0.02)
(0.033242598 0.073242597 0.02)
(0.032652602 0.0737601 0.02)
(0.032000002 0.074196197 0.02)
(0.0312961 0.074543297 0.02)
(0.030552899 0.074795596 0.02)
(0.0297832 0.074948698 0.02)
(0.028999999 0.075000003 0.02)
(-0.028999999 0.075000003 0.02)
(-0.0297832 0.074948698 0.02)
(-0.030552899 0.074795596 0.02)
(-0.0312961 0.074543297 0.02)
(-0.032000002 0.074196197 0.02)
(-0.032652602 0.0737601 0.02)
(-0.033242598 0.073242597 0.02)
(-0.033760101 0.072652601 0.02)
(-0.034196202 0.071999997 0.02)
(-0.034543298 0.071296103 0.02)
(-0.034795601 0.0705529 0.02)
(-0.034948699 0.069783203 0.02)
(-0.035 0.068999998 0.02)
)


// edges:

104
(
(52 53)
(53 54)
(54 55)
(55 56)
(56 57)
(57 58)
(58 59)
(59 60)
(60 61)
(61 62)
(62 63)
(63 64)
(64 65)
(65 66)
(66 67)
(67 68)
(68 69)
(69 70)
(70 71)
(71 72)
(72 73)
(73 74)
(74 75)
(75 76)
(76 77)
(77 78)
(78 79)
(79 80)
(80 81)
(81 82)
(82 83)
(83 84)
(84 85)
(85 86)
(86 87)
(87 88)
(88 89)
(89 90)
(90 91)
(91 92)
(92 93)
(93 94)
(94 95)
(95 96)
(96 97)
(97 98)
(98 99)
(99 100)
(100 101)
(101 102)
(102 103)
(103 52)
(0 1)
(2 0)
(3 2)
(4 3)
(5 4)
(6 5)
(7 6)
(8 7)
(9 8)
(10 9)
(11 10)
(12 11)
(13 12)
(14 13)
(15 14)
(16 15)
(17 16)
(18 17)
(19 18)
(20 19)
(21 20)
(22 21)
(23 22)
(24 23)
(25 24)
(26 25)
(27 26)
(28 27)
(29 28)
(30 29)
(31 30)
(32 31)
(33 32)
(34 33)
(35 34)
(36 35)
(37 36)
(38 37)
(39 38)
(40 39)
(41 40)
(42 41)
(43 42)
(44 43)
(45 44)
(46 45)
(47 46)
(48 47)
(49 48)
(50 49)
(51 50)
(1 51)
)

// * * * * * * * * * * * * * * * * * * * * * * * * * * * * * * * * * * * * * //


// ************************************************************************* //
