/*--------------------------------*- C++ -*----------------------------------*\
| =========                 |                                                 |
| \\      /  F ield         | OpenFOAM: The Open Source CFD Toolbox           |
|  \\    /   O peration     | Version:  2.3.x                                 |
|   \\  /    A nd           | Web:      www.OpenFOAM.org                      |
|    \\/     M anipulation  |                                                 |
\*---------------------------------------------------------------------------*/
FoamFile
{
    version     2.0;
    format      ascii;
    class       featureEdgeMesh;
    location    "constant/triSurface";
    object      geometry_wafer.eMesh;
}
// * * * * * * * * * * * * * * * * * * * * * * * * * * * * * * * * * * * * * //


// points:

56
(
(0.078000002 -0.075000003 -0.00050000002)
(0.078000002 -0.075000003 -0.001)
(0.078000002 0.075000003 -0.001)
(0.078000002 0.075000003 -0.00050000002)
(-0.035 -0.068999998 -0.001)
(-0.034948699 -0.069783203 -0.001)
(-0.034948699 -0.069783203 -0.00050000002)
(-0.035 -0.068999998 -0.00050000002)
(-0.034795601 -0.0705529 -0.001)
(-0.034795601 -0.0705529 -0.00050000002)
(-0.034543298 -0.071296103 -0.001)
(-0.034543298 -0.071296103 -0.00050000002)
(-0.034196202 -0.071999997 -0.001)
(-0.034196202 -0.071999997 -0.00050000002)
(-0.033760101 -0.072652601 -0.001)
(-0.033760101 -0.072652601 -0.00050000002)
(-0.033242598 -0.073242597 -0.001)
(-0.033242598 -0.073242597 -0.00050000002)
(-0.032652602 -0.0737601 -0.001)
(-0.032652602 -0.0737601 -0.00050000002)
(-0.032000002 -0.074196197 -0.001)
(-0.032000002 -0.074196197 -0.00050000002)
(-0.0312961 -0.074543297 -0.001)
(-0.030552899 -0.074795596 -0.001)
(-0.0312961 -0.074543297 -0.00050000002)
(-0.030552899 -0.074795596 -0.00050000002)
(-0.0297832 -0.074948698 -0.001)
(-0.028999999 -0.075000003 -0.001)
(-0.0297832 -0.074948698 -0.00050000002)
(-0.028999999 -0.075000003 -0.00050000002)
(-0.028999999 0.075000003 -0.00050000002)
(-0.028999999 0.075000003 -0.001)
(-0.0297832 0.074948698 -0.00050000002)
(-0.0297832 0.074948698 -0.001)
(-0.030552899 0.074795596 -0.001)
(-0.0312961 0.074543297 -0.001)
(-0.030552899 0.074795596 -0.00050000002)
(-0.0312961 0.074543297 -0.00050000002)
(-0.032000002 0.074196197 -0.001)
(-0.032000002 0.074196197 -0.00050000002)
(-0.032652602 0.0737601 -0.001)
(-0.032652602 0.0737601 -0.00050000002)
(-0.033242598 0.073242597 -0.001)
(-0.033242598 0.073242597 -0.00050000002)
(-0.033760101 0.072652601 -0.001)
(-0.034196202 0.071999997 -0.001)
(-0.033760101 0.072652601 -0.00050000002)
(-0.034196202 0.071999997 -0.00050000002)
(-0.034543298 0.071296103 -0.001)
(-0.034543298 0.071296103 -0.00050000002)
(-0.034795601 0.0705529 -0.001)
(-0.034948699 0.069783203 -0.001)
(-0.034795601 0.0705529 -0.00050000002)
(-0.034948699 0.069783203 -0.00050000002)
(-0.035 0.068999998 -0.001)
(-0.035 0.068999998 -0.00050000002)
)


// edges:

58
(
(4 5)
(6 7)
(5 8)
(9 6)
(8 10)
(11 9)
(10 12)
(13 11)
(12 14)
(15 13)
(14 16)
(17 15)
(16 18)
(19 17)
(18 20)
(21 19)
(20 22)
(22 23)
(24 21)
(25 24)
(23 26)
(26 27)
(28 25)
(29 28)
(0 29)
(1 0)
(27 1)
(2 3)
(3 0)
(1 2)
(30 3)
(2 31)
(32 30)
(31 33)
(33 34)
(34 35)
(36 32)
(37 36)
(35 38)
(39 37)
(38 40)
(41 39)
(40 42)
(43 41)
(42 44)
(44 45)
(46 43)
(47 46)
(45 48)
(49 47)
(48 50)
(50 51)
(52 49)
(53 52)
(51 54)
(55 53)
(54 4)
(7 55)
)

// * * * * * * * * * * * * * * * * * * * * * * * * * * * * * * * * * * * * * //


// ************************************************************************* //
