/*--------------------------------*- C++ -*----------------------------------*\
| =========                 |                                                 |
| \\      /  F ield         | OpenFOAM: The Open Source CFD Toolbox           |
|  \\    /   O peration     | Version:  2.3.x                                 |
|   \\  /    A nd           | Web:      www.OpenFOAM.org                      |
|    \\/     M anipulation  |                                                 |
\*---------------------------------------------------------------------------*/
FoamFile
{
    version     2.0;
    format      ascii;
    class       featureEdgeMesh;
    location    "constant/triSurface";
    object      geometry_fluid_static.eMesh;
}
// * * * * * * * * * * * * * * * * * * * * * * * * * * * * * * * * * * * * * //


// points:

56
(
(0.045000002 -0.075000003 0)
(0.045000002 -0.075000003 -0.00050000002)
(0.045000002 0.075000003 -0.00050000002)
(0.045000002 0.075000003 0)
(-0.034948699 -0.069783203 0)
(-0.035 -0.068999998 0)
(-0.035 -0.068999998 -0.00050000002)
(-0.034948699 -0.069783203 -0.00050000002)
(-0.034795601 -0.0705529 -0.00050000002)
(-0.034795601 -0.0705529 0)
(-0.034543298 -0.071296103 -0.00050000002)
(-0.034543298 -0.071296103 0)
(-0.034196202 -0.071999997 -0.00050000002)
(-0.034196202 -0.071999997 0)
(-0.033760101 -0.072652601 -0.00050000002)
(-0.033242598 -0.073242597 -0.00050000002)
(-0.033760101 -0.072652601 0)
(-0.033242598 -0.073242597 0)
(-0.032652602 -0.0737601 -0.00050000002)
(-0.032652602 -0.0737601 0)
(-0.032000002 -0.074196197 -0.00050000002)
(-0.032000002 -0.074196197 0)
(-0.0312961 -0.074543297 -0.00050000002)
(-0.0312961 -0.074543297 0)
(-0.030552899 -0.074795596 -0.00050000002)
(-0.030552899 -0.074795596 0)
(-0.0297832 -0.074948698 -0.00050000002)
(-0.028999999 -0.075000003 -0.00050000002)
(-0.0297832 -0.074948698 0)
(-0.028999999 -0.075000003 0)
(-0.028999999 0.075000003 0)
(-0.028999999 0.075000003 -0.00050000002)
(-0.0297832 0.074948698 0)
(-0.0297832 0.074948698 -0.00050000002)
(-0.030552899 0.074795596 -0.00050000002)
(-0.030552899 0.074795596 0)
(-0.0312961 0.074543297 -0.00050000002)
(-0.0312961 0.074543297 0)
(-0.032000002 0.074196197 -0.00050000002)
(-0.032000002 0.074196197 0)
(-0.032652602 0.0737601 -0.00050000002)
(-0.033242598 0.073242597 -0.00050000002)
(-0.032652602 0.0737601 0)
(-0.033242598 0.073242597 0)
(-0.033760101 0.072652601 -0.00050000002)
(-0.033760101 0.072652601 0)
(-0.034196202 0.071999997 -0.00050000002)
(-0.034196202 0.071999997 0)
(-0.034543298 0.071296103 -0.00050000002)
(-0.034795601 0.0705529 -0.00050000002)
(-0.034543298 0.071296103 0)
(-0.034795601 0.0705529 0)
(-0.034948699 0.069783203 -0.00050000002)
(-0.034948699 0.069783203 0)
(-0.035 0.068999998 -0.00050000002)
(-0.035 0.068999998 0)
)


// edges:

58
(
(4 5)
(6 7)
(7 8)
(9 4)
(8 10)
(11 9)
(10 12)
(13 11)
(12 14)
(14 15)
(16 13)
(17 16)
(15 18)
(19 17)
(18 20)
(21 19)
(20 22)
(23 21)
(22 24)
(25 23)
(24 26)
(26 27)
(28 25)
(29 28)
(0 29)
(1 0)
(27 1)
(2 3)
(3 0)
(1 2)
(30 3)
(2 31)
(32 30)
(31 33)
(33 34)
(35 32)
(34 36)
(37 35)
(36 38)
(39 37)
(38 40)
(40 41)
(42 39)
(43 42)
(41 44)
(45 43)
(44 46)
(47 45)
(46 48)
(48 49)
(50 47)
(51 50)
(49 52)
(53 51)
(52 54)
(55 53)
(54 6)
(5 55)
)

// * * * * * * * * * * * * * * * * * * * * * * * * * * * * * * * * * * * * * //


// ************************************************************************* //
