/*--------------------------------*- C++ -*----------------------------------*\
| =========                 |                                                 |
| \\      /  F ield         | OpenFOAM: The Open Source CFD Toolbox           |
|  \\    /   O peration     | Version:  2.3.x                                 |
|   \\  /    A nd           | Web:      www.OpenFOAM.org                      |
|    \\/     M anipulation  |                                                 |
\*---------------------------------------------------------------------------*/
FoamFile
{
    version     2.0;
    format      ascii;
    class       featureEdgeMesh;
    location    "constant/triSurface";
    object      geometry_boundary_fixedMesh.eMesh;
}
// * * * * * * * * * * * * * * * * * * * * * * * * * * * * * * * * * * * * * //


// points:

60
(
(-0.045000002 0.085000001 0.050000001)
(-0.045000002 0.085000001 0)
(-0.045000002 -0.085000001 0)
(-0.045000002 -0.085000001 0.050000001)
(0.045000002 -0.085000001 0)
(0.045000002 -0.085000001 0.050000001)
(0.045000002 0.085000001 0)
(0.045000002 0.085000001 0.050000001)
(-0.034196202 0.071999997 0)
(-0.034543298 0.071296103 0)
(-0.034795601 0.0705529 0)
(-0.034948699 0.069783203 0)
(-0.035 0.068999998 0)
(-0.035 -0.068999998 0)
(-0.033242598 0.073242597 0)
(-0.033760101 0.072652601 0)
(-0.033242598 -0.073242597 0)
(-0.032652602 -0.0737601 0)
(-0.033760101 -0.072652601 0)
(-0.032652602 0.0737601 0)
(-0.032000002 -0.074196197 0)
(-0.032000002 0.074196197 0)
(-0.034196202 -0.071999997 0)
(-0.0312961 0.074543297 0)
(-0.0312961 -0.074543297 0)
(-0.030552899 0.074795596 0)
(-0.034543298 -0.071296103 0)
(-0.0297832 0.074948698 0)
(-0.030552899 -0.074795596 0)
(-0.028999999 0.075000003 0)
(-0.034795601 -0.0705529 0)
(-0.0297832 -0.074948698 0)
(-0.034948699 -0.069783203 0)
(-0.028999999 -0.075000003 0)
(0.028999999 -0.075000003 0)
(0.0297832 -0.074948698 0)
(0.030552899 -0.074795596 0)
(0.0312961 -0.074543297 0)
(0.032000002 -0.074196197 0)
(0.032652602 -0.0737601 0)
(0.035 0.068999998 0)
(0.034948699 0.069783203 0)
(0.034795601 0.0705529 0)
(0.034543298 0.071296103 0)
(0.034196202 0.071999997 0)
(0.033760101 0.072652601 0)
(0.033242598 0.073242597 0)
(0.032652602 0.0737601 0)
(0.032000002 0.074196197 0)
(0.033242598 -0.073242597 0)
(0.0312961 0.074543297 0)
(0.030552899 0.074795596 0)
(0.0297832 0.074948698 0)
(0.028999999 0.075000003 0)
(0.035 -0.068999998 0)
(0.033760101 -0.072652601 0)
(0.034196202 -0.071999997 0)
(0.034543298 -0.071296103 0)
(0.034795601 -0.0705529 0)
(0.034948699 -0.069783203 0)
)


// edges:

64
(
(1 2)
(0 1)
(2 3)
(3 0)
(2 4)
(4 5)
(5 3)
(6 4)
(1 6)
(5 7)
(7 0)
(7 6)
(8 9)
(9 10)
(10 11)
(11 12)
(12 13)
(14 15)
(16 17)
(18 16)
(19 14)
(17 20)
(21 19)
(22 18)
(23 21)
(20 24)
(25 23)
(26 22)
(27 25)
(24 28)
(29 27)
(30 26)
(28 31)
(32 30)
(31 33)
(13 32)
(34 35)
(35 36)
(36 37)
(37 38)
(38 39)
(33 34)
(40 41)
(41 42)
(42 43)
(43 44)
(44 45)
(45 46)
(46 47)
(47 48)
(39 49)
(48 50)
(50 51)
(51 52)
(52 53)
(54 40)
(49 55)
(53 29)
(55 56)
(56 57)
(57 58)
(58 59)
(59 54)
(15 8)
)

// * * * * * * * * * * * * * * * * * * * * * * * * * * * * * * * * * * * * * //


// ************************************************************************* //
