/*--------------------------------*- C++ -*----------------------------------*\
| =========                 |                                                 |
| \\      /  F ield         | OpenFOAM: The Open Source CFD Toolbox           |
|  \\    /   O peration     | Version:  2.3.x                                 |
|   \\  /    A nd           | Web:      www.OpenFOAM.org                      |
|    \\/     M anipulation  |                                                 |
\*---------------------------------------------------------------------------*/
FoamFile
{
    version     2.0;
    format      ascii;
    class       featureEdgeMesh;
    location    "constant/triSurface";
    object      geometry_boundary_trackedSurface.eMesh;
}
// * * * * * * * * * * * * * * * * * * * * * * * * * * * * * * * * * * * * * //


// points:

52
(
(0.0312961 0.074543297 0.02)
(0.030552899 0.074795596 0.02)
(0.0297832 0.074948698 0.02)
(0.028999999 0.075000003 0.02)
(0.033242598 -0.073242597 0.02)
(0.033760101 -0.072652601 0.02)
(0.032652602 -0.0737601 0.02)
(0.032000002 0.074196197 0.02)
(-0.028999999 0.075000003 0.02)
(0.034196202 -0.071999997 0.02)
(-0.035 0.068999998 0.02)
(-0.035 -0.068999998 0.02)
(0.034543298 -0.071296103 0.02)
(-0.0297832 0.074948698 0.02)
(-0.030552899 0.074795596 0.02)
(0.0312961 -0.074543297 0.02)
(0.032000002 -0.074196197 0.02)
(0.030552899 -0.074795596 0.02)
(-0.034543298 0.071296103 0.02)
(-0.034795601 0.0705529 0.02)
(-0.034196202 0.071999997 0.02)
(0.0297832 -0.074948698 0.02)
(-0.0312961 0.074543297 0.02)
(-0.032000002 0.074196197 0.02)
(0.034795601 -0.0705529 0.02)
(0.034948699 -0.069783203 0.02)
(-0.032652602 0.0737601 0.02)
(-0.034948699 0.069783203 0.02)
(0.028999999 -0.075000003 0.02)
(-0.033760101 0.072652601 0.02)
(0.035 -0.068999998 0.02)
(-0.033242598 0.073242597 0.02)
(-0.028999999 -0.075000003 0.02)
(-0.0312961 -0.074543297 0.02)
(-0.030552899 -0.074795596 0.02)
(-0.032000002 -0.074196197 0.02)
(-0.0297832 -0.074948698 0.02)
(-0.033242598 -0.073242597 0.02)
(-0.032652602 -0.0737601 0.02)
(-0.033760101 -0.072652601 0.02)
(-0.034196202 -0.071999997 0.02)
(-0.034543298 -0.071296103 0.02)
(-0.034795601 -0.0705529 0.02)
(-0.034948699 -0.069783203 0.02)
(0.035 0.068999998 0.02)
(0.034948699 0.069783203 0.02)
(0.034795601 0.0705529 0.02)
(0.034543298 0.071296103 0.02)
(0.034196202 0.071999997 0.02)
(0.033760101 0.072652601 0.02)
(0.033242598 0.073242597 0.02)
(0.032652602 0.0737601 0.02)
)


// edges:

52
(
(0 1)
(1 2)
(2 3)
(4 5)
(6 4)
(7 0)
(3 8)
(5 9)
(10 11)
(9 12)
(8 13)
(13 14)
(15 16)
(17 15)
(16 6)
(18 19)
(20 18)
(21 17)
(14 22)
(22 23)
(12 24)
(24 25)
(23 26)
(19 27)
(27 10)
(28 21)
(29 20)
(25 30)
(26 31)
(31 29)
(32 28)
(33 34)
(35 33)
(34 36)
(36 32)
(37 38)
(39 37)
(38 35)
(40 39)
(41 40)
(42 41)
(43 42)
(11 43)
(30 44)
(44 45)
(45 46)
(46 47)
(47 48)
(48 49)
(49 50)
(50 51)
(51 7)
)

// * * * * * * * * * * * * * * * * * * * * * * * * * * * * * * * * * * * * * //


// ************************************************************************* //
