/*--------------------------------*- C++ -*----------------------------------*\
| =========                 |                                                 |
| \\      /  F ield         | foam-extend: Open Source CFD                    |
|  \\    /   O peration     | Version:     4.0                                |
|   \\  /    A nd           | Web:         http://www.foam-extend.org         |
|    \\/     M anipulation  | For copyright notice see file Copyright         |
\*---------------------------------------------------------------------------*/
FoamFile
{
    version     2.0;
    format      ascii;
    class       volScalarField;
    object      psi;
}
// * * * * * * * * * * * * * * * * * * * * * * * * * * * * * * * * * * * * * //

dimensions      [0 0 0 0 0 0 0];

internalField   uniform 0;

boundaryField
{
    bottom
    {
        type            fixedGradient;
        gradient        uniform 0;
//         type            fixedValue;
//         value           uniform 0;
    }
    top
    {
        type            fixedGradient;
        gradient        uniform 0;
//         type            fixedValue;
//         value           uniform 0;
    }
    left
    {
        type            fixedGradient;
        gradient        uniform 1.0;
    }
    right
    {
        type            fixedGradient;
        gradient        uniform -1.0;
    }
    frontAndBack
    {
        type            empty;
    }
}

// ************************************************************************* //
