/*--------------------------------*- C++ -*----------------------------------*\
| =========                 |                                                 |
| \\      /  F ield         | foam-extend: Open Source CFD                    |
|  \\    /   O peration     | Version:     4.0                                |
|   \\  /    A nd           | Web:         http://www.foam-extend.org         |
|    \\/     M anipulation  | For copyright notice see file Copyright         |
\*---------------------------------------------------------------------------*/
FoamFile
{
    version     2.0;
    format      ascii;
    class       tetPointVectorField;
    object      motionU;
}
// * * * * * * * * * * * * * * * * * * * * * * * * * * * * * * * * * * * * * //

dimensions          [0 1 -1 0 0 0 0];

internalField       uniform (0 0 0);

boundaryField
{
    axis
    {
//         type            slip; // broken in combination with wedge?
        type            componentMixed;
        refValue        uniform (0 0 0);
        valueFraction   uniform (1 0 0);
    }
    front
    {
        type            wedge;
    }
    back
    {
        type            wedge;
    }
    infinity
    {
        type            fixedValue;
        value           $internalField;
    }
    trackedSurface
    {
        type            fixedValue;
        value           uniform (0 0 0);
    }
    "procBoundary.*"
    {
        type            processor;
        value           $internalField;
    }
}

// ************************************************************************* //
