/*--------------------------------*- C++ -*----------------------------------*\
| =========                 |                                                 |
| \\      /  F ield         | foam-extend: Open Source CFD                    |
|  \\    /   O peration     | Version:     3.1                                |
|   \\  /    A nd           | Web:         http://www.extend-project.de       |
|    \\/     M anipulation  |                                                 |
\*---------------------------------------------------------------------------*/
FoamFile
{
    version     2.0;
    format      ascii;
    class       dictionary;
    object      blockMeshDict;
}
// * * * * * * * * * * * * * * * * * * * * * * * * * * * * * * * * * * * * * //


convertToMeters 0.001;

vertices
(
    ( 0.0 0.0 -200.0 )
    ( 0.0 0.0 -1.0 )
    ( 0.0 0.0 0.0 )
    ( 0.0 0.0 235.0 )
    ( 0.0 0.0 383.0 )
    ( 0.0 0.0 583.0 )
    ( 84.9190988345 -3.70764792605 -200.0 )
    ( 84.9190988345 -3.70764792605 -1.0 )
    ( 84.9190988345 -3.70764792605 0.0 )
    ( 84.9190988345 -3.70764792605 235.0 )
    ( 84.9190988345 -3.70764792605 383.0 )
    ( 84.9190988345 -3.70764792605 583.0 )
    ( 85.918147056 -3.75126731342 -200.0 )
    ( 85.918147056 -3.75126731342 -1.0 )
    ( 85.918147056 -3.75126731342 0.0 )
    ( 85.918147056 -3.75126731342 235.0 )
    ( 85.918147056 -3.75126731342 383.0 )
    ( 85.918147056 -3.75126731342 583.0 )
    ( 99.9048221582 -4.36193873653 -200.0 )
    ( 99.9048221582 -4.36193873653 -1.0 )
    ( 99.9048221582 -4.36193873653 0.0 )
    ( 99.9048221582 -4.36193873653 235.0 )
    ( 99.9048221582 -4.36193873653 383.0 )
    ( 99.9048221582 -4.36193873653 583.0 )
    ( 114.890545482 -5.01622954701 -200.0 )
    ( 114.890545482 -5.01622954701 -1.0 )
    ( 114.890545482 -5.01622954701 0.0 )
    ( 114.890545482 -5.01622954701 235.0 )
    ( 114.890545482 -5.01622954701 383.0 )
    ( 114.890545482 -5.01622954701 583.0 )
    ( 299.714466475 -13.0858162096 -200.0 )
    ( 299.714466475 -13.0858162096 -1.0 )
    ( 299.714466475 -13.0858162096 0.0 )
    ( 299.714466475 -13.0858162096 235.0 )
    ( 299.714466475 -13.0858162096 383.0 )
    ( 299.714466475 -13.0858162096 583.0 )
    ( 84.9190988345 3.70764792605 -200.0 )
    ( 84.9190988345 3.70764792605 -1.0 )
    ( 84.9190988345 3.70764792605 0.0 )
    ( 84.9190988345 3.70764792605 235.0 )
    ( 84.9190988345 3.70764792605 383.0 )
    ( 84.9190988345 3.70764792605 583.0 )
    ( 85.918147056 3.75126731342 -200.0 )
    ( 85.918147056 3.75126731342 -1.0 )
    ( 85.918147056 3.75126731342 0.0 )
    ( 85.918147056 3.75126731342 235.0 )
    ( 85.918147056 3.75126731342 383.0 )
    ( 85.918147056 3.75126731342 583.0 )
    ( 99.9048221582 4.36193873653 -200.0 )
    ( 99.9048221582 4.36193873653 -1.0 )
    ( 99.9048221582 4.36193873653 0.0 )
    ( 99.9048221582 4.36193873653 235.0 )
    ( 99.9048221582 4.36193873653 383.0 )
    ( 99.9048221582 4.36193873653 583.0 )
    ( 114.890545482 5.01622954701 -200.0 )
    ( 114.890545482 5.01622954701 -1.0 )
    ( 114.890545482 5.01622954701 0.0 )
    ( 114.890545482 5.01622954701 235.0 )
    ( 114.890545482 5.01622954701 383.0 )
    ( 114.890545482 5.01622954701 583.0 )
    ( 299.714466475 13.0858162096 -200.0 )
    ( 299.714466475 13.0858162096 -1.0 )
    ( 299.714466475 13.0858162096 0.0 )
    ( 299.714466475 13.0858162096 235.0 )
    ( 299.714466475 13.0858162096 383.0 )
    ( 299.714466475 13.0858162096 583.0 )
);

blocks
(
    hex ( 0 6 36 0 1 7 37 1 ) region_static ( 22 1 50 ) simpleGrading ( 1.0 1.0 1.0 )
    hex ( 1 7 37 1 2 8 38 2 ) region_static ( 22 1 1 ) simpleGrading ( 1.0 1.0 1.0 )
    hex ( 2 8 38 2 3 9 39 3 ) region_fluid ( 22 1 59 ) simpleGrading ( 1.0 1.0 1.0 )
    hex ( 3 9 39 3 4 10 40 4 ) region_dynamic ( 22 1 37 ) simpleGrading ( 1.0 1.0 1.0 )
    hex ( 4 10 40 4 5 11 41 5 ) region_static ( 22 1 50 ) simpleGrading ( 1.0 1.0 1.0 )
    hex ( 6 12 42 36 7 13 43 37 ) region_static ( 1 1 50 ) simpleGrading ( 1.0 1.0 1.0 )
    hex ( 7 13 43 37 8 14 44 38 ) region_static ( 1 1 1 ) simpleGrading ( 1.0 1.0 1.0 )
    hex ( 8 14 44 38 9 15 45 39 ) region_dynamic ( 1 1 59 ) simpleGrading ( 1.0 1.0 1.0 )
    hex ( 9 15 45 39 10 16 46 40 ) region_dynamic ( 1 1 37 ) simpleGrading ( 1.0 1.0 1.0 )
    hex ( 10 16 46 40 11 17 47 41 ) region_static ( 1 1 50 ) simpleGrading ( 1.0 1.0 1.0 )
    hex ( 12 18 48 42 13 19 49 43 ) region_static ( 4 1 50 ) simpleGrading ( 1.0 1.0 1.0 )
    hex ( 13 19 49 43 14 20 50 44 ) region_static ( 4 1 1 ) simpleGrading ( 1.0 1.0 1.0 )
    hex ( 14 20 50 44 15 21 51 45 ) region_static ( 4 1 59 ) simpleGrading ( 1.0 1.0 1.0 )
    hex ( 15 21 51 45 16 22 52 46 ) region_static ( 4 1 37 ) simpleGrading ( 1.0 1.0 1.0 )
    hex ( 16 22 52 46 17 23 53 47 ) region_static ( 4 1 50 ) simpleGrading ( 1.0 1.0 1.0 )
    hex ( 18 24 54 48 19 25 55 49 ) region_static ( 4 1 50 ) simpleGrading ( 1.0 1.0 1.0 )
    hex ( 19 25 55 49 20 26 56 50 ) region_static ( 4 1 1 ) simpleGrading ( 1.0 1.0 1.0 )
    hex ( 20 26 56 50 21 27 57 51 ) region_static ( 4 1 59 ) simpleGrading ( 1.0 1.0 1.0 )
    hex ( 21 27 57 51 22 28 58 52 ) region_static ( 4 1 37 ) simpleGrading ( 1.0 1.0 1.0 )
    hex ( 22 28 58 52 23 29 59 53 ) region_static ( 4 1 50 ) simpleGrading ( 1.0 1.0 1.0 )
    hex ( 24 30 60 54 25 31 61 55 ) region_static ( 47 1 50 ) simpleGrading ( 1.0 1.0 1.0 )
    hex ( 25 31 61 55 26 32 62 56 ) region_static ( 47 1 1 ) simpleGrading ( 1.0 1.0 1.0 )
    hex ( 26 32 62 56 27 33 63 57 ) region_static ( 47 1 59 ) simpleGrading ( 1.0 1.0 1.0 )
    hex ( 27 33 63 57 28 34 64 58 ) region_static ( 47 1 37 ) simpleGrading ( 1.0 1.0 1.0 )
    hex ( 28 34 64 58 29 35 65 59 ) region_static ( 47 1 50 ) simpleGrading ( 1.0 1.0 1.0 )
);

edges
(
);

boundary
(
    axis
    {
        type symmetryPlane;
        faces
        (
            ( 0 0 1 1 )
            ( 1 1 2 2 )
            ( 2 2 3 3 )
            ( 3 3 4 4 )
            ( 4 4 5 5 )
        );
    }

    front
    {
        type wedge;
        faces
        (
            ( 0 6 7 1 )
            ( 1 7 8 2 )
            ( 2 8 9 3 )
            ( 3 9 10 4 )
            ( 4 10 11 5 )
            ( 6 12 13 7 )
            ( 7 13 14 8 )
            ( 8 14 15 9 )
            ( 9 15 16 10 )
            ( 10 16 17 11 )
            ( 12 18 19 13 )
            ( 13 19 20 14 )
            ( 14 20 21 15 )
            ( 15 21 22 16 )
            ( 16 22 23 17 )
            ( 18 24 25 19 )
            ( 19 25 26 20 )
            ( 20 26 27 21 )
            ( 21 27 28 22 )
            ( 22 28 29 23 )
            ( 24 30 31 25 )
            ( 25 31 32 26 )
            ( 26 32 33 27 )
            ( 27 33 34 28 )
            ( 28 34 35 29 )
        );
    }

    back
    {
        type wedge;
        faces
        (
            ( 36 0 1 37 )
            ( 37 1 2 38 )
            ( 38 2 3 39 )
            ( 39 3 4 40 )
            ( 40 4 5 41 )
            ( 42 36 37 43 )
            ( 43 37 38 44 )
            ( 44 38 39 45 )
            ( 45 39 40 46 )
            ( 46 40 41 47 )
            ( 48 42 43 49 )
            ( 49 43 44 50 )
            ( 50 44 45 51 )
            ( 51 45 46 52 )
            ( 52 46 47 53 )
            ( 54 48 49 55 )
            ( 55 49 50 56 )
            ( 56 50 51 57 )
            ( 57 51 52 58 )
            ( 58 52 53 59 )
            ( 60 54 55 61 )
            ( 61 55 56 62 )
            ( 62 56 57 63 )
            ( 63 57 58 64 )
            ( 64 58 59 65 )
        );
    }

    infinity
    {
        type patch;
        faces
        (
            ( 0 6 36 0 )
            ( 6 12 42 36 )
            ( 12 18 48 42 )
            ( 18 24 54 48 )
            ( 24 30 60 54 )
            ( 5 11 41 5 )
            ( 11 17 47 41 )
            ( 17 23 53 47 )
            ( 23 29 59 53 )
            ( 29 35 65 59 )
            ( 30 60 61 31 )
            ( 31 61 62 32 )
            ( 32 62 63 33 )
            ( 33 63 64 34 )
            ( 34 64 65 35 )
        );
    }
);

mergePatchPairs
(
);

// ************************************************************************* //


