/*--------------------------------*- C++ -*----------------------------------*\
| =========                 |                                                 |
| \\      /  F ield         | foam-extend: Open Source CFD                    |
|  \\    /   O peration     | Version:     3.1                                |
|   \\  /    A nd           | Web:         http://www.extend-project.de       |
|    \\/     M anipulation  |                                                 |
\*---------------------------------------------------------------------------*/
FoamFile
{
    version     2.0;
    format      ascii;
    class       volVectorField;
    object      AIm;
}
// * * * * * * * * * * * * * * * * * * * * * * * * * * * * * * * * * * * * * //

dimensions      [1 1 -2 0 0 -1 0];

internalField   uniform (0 0 0);

boundaryField
{
    frontAndBack
    {
        type            empty;
    }
    trackedSurface
    {
        type            calculated;
        value           $internalField;
    }
    movingWall
    {
        type            calculated;
        value           $internalField;
    }
    fixedWall
    {
        type            calculated;
        value           $internalField;
    }
    "procBoundary.*"
    {
        type            processor;
        value           $internalField;
    }
}

// ************************************************************************* //
