/*--------------------------------*- C++ -*----------------------------------*\
| =========                 |                                                 |
| \\      /  F ield         | foam-extend: Open Source CFD                    |
|  \\    /   O peration     | Version:     3.1                                |
|   \\  /    A nd           | Web:         http://www.extend-project.de       |
|    \\/     M anipulation  |                                                 |
\*---------------------------------------------------------------------------*/
FoamFile
{
    version     2.0;
    format      ascii;
    class       dictionary;
    object      fvSolution;
}
// * * * * * * * * * * * * * * * * * * * * * * * * * * * * * * * * * * * * * //

solvers
{
    V
    {
        solver                   deflatedPCG;

        tolerance                1e-04;
        relTol                   0;

        minIter                  0;
        maxIter                  300;

        preconditioner           DIC; // AMG, Cholesky, DIC, DILU, FDIC, GAMG, SymGaussSeidel, diagonal, none
    }
}

// ************************************************************************* //
