/*--------------------------------*- C++ -*----------------------------------*\
| =========                 |                                                 |
| \\      /  F ield         | OpenFOAM: The Open Source CFD Toolbox           |
|  \\    /   O peration     | Version:  2.3.x                                 |
|   \\  /    A nd           | Web:      www.OpenFOAM.org                      |
|    \\/     M anipulation  |                                                 |
\*---------------------------------------------------------------------------*/
FoamFile
{
    version     2.0;
    format      ascii;
    class       featureEdgeMesh;
    location    "constant/triSurface";
    object      geometry_frame_static.eMesh;
}
// * * * * * * * * * * * * * * * * * * * * * * * * * * * * * * * * * * * * * //


// points:

112
(
(-0.045000002 0.085000001 0.050000001)
(-0.045000002 -0.085000001 0.050000001)
(-0.045000002 -0.085000001 0.090000004)
(-0.045000002 0.085000001 0.090000004)
(0.045000002 -0.085000001 0.090000004)
(0.045000002 -0.085000001 0.050000001)
(0.045000002 0.085000001 0.050000001)
(0.045000002 0.085000001 0.090000004)
(-0.033242598 -0.073242597 0.050000001)
(-0.032652602 -0.0737601 0.050000001)
(-0.034948699 0.069783203 0.050000001)
(-0.035 0.068999998 0.050000001)
(-0.034795601 0.0705529 0.050000001)
(-0.034543298 0.071296103 0.050000001)
(-0.033760101 -0.072652601 0.050000001)
(-0.034196202 0.071999997 0.050000001)
(-0.033760101 0.072652601 0.050000001)
(-0.033242598 0.073242597 0.050000001)
(-0.035 -0.068999998 0.050000001)
(-0.034196202 -0.071999997 0.050000001)
(-0.032652602 0.0737601 0.050000001)
(-0.032000002 -0.074196197 0.050000001)
(-0.032000002 0.074196197 0.050000001)
(-0.0312961 -0.074543297 0.050000001)
(-0.034543298 -0.071296103 0.050000001)
(-0.0312961 0.074543297 0.050000001)
(-0.030552899 -0.074795596 0.050000001)
(-0.030552899 0.074795596 0.050000001)
(-0.034795601 -0.0705529 0.050000001)
(-0.0297832 0.074948698 0.050000001)
(-0.0297832 -0.074948698 0.050000001)
(-0.028999999 0.075000003 0.050000001)
(-0.034948699 -0.069783203 0.050000001)
(-0.028999999 -0.075000003 0.050000001)
(0.028999999 -0.075000003 0.050000001)
(0.032000002 -0.074196197 0.050000001)
(0.032652602 -0.0737601 0.050000001)
(0.0312961 -0.074543297 0.050000001)
(0.030552899 -0.074795596 0.050000001)
(0.0297832 -0.074948698 0.050000001)
(0.033242598 -0.073242597 0.050000001)
(0.028999999 0.075000003 0.050000001)
(0.035 -0.068999998 0.050000001)
(0.035 0.068999998 0.050000001)
(0.0297832 0.074948698 0.050000001)
(0.030552899 0.074795596 0.050000001)
(0.0312961 0.074543297 0.050000001)
(0.032000002 0.074196197 0.050000001)
(0.032652602 0.0737601 0.050000001)
(0.033242598 0.073242597 0.050000001)
(0.033760101 -0.072652601 0.050000001)
(0.033760101 0.072652601 0.050000001)
(0.034196202 -0.071999997 0.050000001)
(0.034196202 0.071999997 0.050000001)
(0.034543298 0.071296103 0.050000001)
(0.034795601 0.0705529 0.050000001)
(0.034948699 0.069783203 0.050000001)
(0.034543298 -0.071296103 0.050000001)
(0.034795601 -0.0705529 0.050000001)
(0.034948699 -0.069783203 0.050000001)
(-0.034543298 0.071296103 0.090000004)
(-0.034196202 0.071999997 0.090000004)
(-0.034795601 0.0705529 0.090000004)
(-0.034948699 0.069783203 0.090000004)
(-0.035 0.068999998 0.090000004)
(-0.035 -0.068999998 0.090000004)
(-0.033760101 0.072652601 0.090000004)
(-0.033242598 0.073242597 0.090000004)
(-0.032652602 -0.0737601 0.090000004)
(-0.033242598 -0.073242597 0.090000004)
(-0.033760101 -0.072652601 0.090000004)
(-0.032652602 0.0737601 0.090000004)
(-0.032000002 -0.074196197 0.090000004)
(-0.032000002 0.074196197 0.090000004)
(-0.034196202 -0.071999997 0.090000004)
(-0.0312961 0.074543297 0.090000004)
(-0.0312961 -0.074543297 0.090000004)
(-0.030552899 0.074795596 0.090000004)
(-0.034543298 -0.071296103 0.090000004)
(-0.0297832 0.074948698 0.090000004)
(-0.030552899 -0.074795596 0.090000004)
(-0.028999999 0.075000003 0.090000004)
(-0.034795601 -0.0705529 0.090000004)
(-0.0297832 -0.074948698 0.090000004)
(-0.034948699 -0.069783203 0.090000004)
(-0.028999999 -0.075000003 0.090000004)
(0.0297832 -0.074948698 0.090000004)
(0.028999999 -0.075000003 0.090000004)
(0.030552899 -0.074795596 0.090000004)
(0.0312961 -0.074543297 0.090000004)
(0.032000002 -0.074196197 0.090000004)
(0.032652602 -0.0737601 0.090000004)
(0.034948699 0.069783203 0.090000004)
(0.035 0.068999998 0.090000004)
(0.034795601 0.0705529 0.090000004)
(0.034543298 0.071296103 0.090000004)
(0.034196202 0.071999997 0.090000004)
(0.033760101 0.072652601 0.090000004)
(0.033242598 0.073242597 0.090000004)
(0.032652602 0.0737601 0.090000004)
(0.032000002 0.074196197 0.090000004)
(0.033242598 -0.073242597 0.090000004)
(0.0312961 0.074543297 0.090000004)
(0.030552899 0.074795596 0.090000004)
(0.0297832 0.074948698 0.090000004)
(0.028999999 0.075000003 0.090000004)
(0.035 -0.068999998 0.090000004)
(0.033760101 -0.072652601 0.090000004)
(0.034196202 -0.071999997 0.090000004)
(0.034543298 -0.071296103 0.090000004)
(0.034795601 -0.0705529 0.090000004)
(0.034948699 -0.069783203 0.090000004)
)


// edges:

116
(
(1 2)
(0 1)
(2 3)
(3 0)
(4 2)
(1 5)
(5 4)
(8 9)
(10 11)
(12 10)
(13 12)
(14 8)
(15 13)
(16 15)
(17 16)
(11 18)
(19 14)
(20 17)
(9 21)
(22 20)
(21 23)
(24 19)
(25 22)
(23 26)
(27 25)
(28 24)
(29 27)
(26 30)
(31 29)
(32 28)
(18 32)
(30 33)
(33 34)
(35 36)
(37 35)
(38 37)
(39 38)
(34 39)
(36 40)
(41 31)
(6 5)
(0 6)
(42 43)
(44 41)
(45 44)
(46 45)
(47 46)
(48 47)
(49 48)
(40 50)
(51 49)
(50 52)
(53 51)
(54 53)
(55 54)
(56 55)
(43 56)
(52 57)
(57 58)
(58 59)
(59 42)
(60 61)
(62 60)
(63 62)
(64 63)
(65 64)
(66 67)
(68 69)
(69 70)
(67 71)
(72 68)
(71 73)
(70 74)
(73 75)
(76 72)
(75 77)
(74 78)
(77 79)
(80 76)
(79 81)
(78 82)
(83 80)
(82 84)
(85 83)
(84 65)
(86 87)
(88 86)
(89 88)
(90 89)
(91 90)
(87 85)
(92 93)
(94 92)
(95 94)
(96 95)
(97 96)
(4 7)
(98 97)
(7 3)
(99 98)
(100 99)
(101 91)
(102 100)
(103 102)
(104 103)
(105 104)
(93 106)
(107 101)
(81 105)
(108 107)
(109 108)
(110 109)
(111 110)
(106 111)
(61 66)
(7 6)
)

// * * * * * * * * * * * * * * * * * * * * * * * * * * * * * * * * * * * * * //


// ************************************************************************* //
