/*--------------------------------*- C++ -*----------------------------------*\
| =========                 |                                                 |
| \\      /  F ield         | OpenFOAM: The Open Source CFD Toolbox           |
|  \\    /   O peration     | Version:  2.3.x                                 |
|   \\  /    A nd           | Web:      www.OpenFOAM.org                      |
|    \\/     M anipulation  |                                                 |
\*---------------------------------------------------------------------------*/
FoamFile
{
    version     2.0;
    format      ascii;
    class       featureEdgeMesh;
    location    "constant/triSurface";
    object      geometry_frame.eMesh;
}
// * * * * * * * * * * * * * * * * * * * * * * * * * * * * * * * * * * * * * //


// points:

112
(
(-0.045000002 0.085000001 0.090000004)
(-0.045000002 0.085000001 0)
(-0.045000002 -0.085000001 0.090000004)
(-0.045000002 -0.085000001 0)
(0.045000002 -0.085000001 0)
(0.045000002 -0.085000001 0.090000004)
(0.045000002 0.085000001 0.090000004)
(0.045000002 0.085000001 0)
(-0.034196202 0.071999997 0.090000004)
(-0.033760101 0.072652601 0.090000004)
(-0.034543298 0.071296103 0.090000004)
(-0.034795601 0.0705529 0.090000004)
(-0.034948699 0.069783203 0.090000004)
(-0.035 0.068999998 0.090000004)
(-0.035 -0.068999998 0.090000004)
(-0.033242598 0.073242597 0.090000004)
(-0.032652602 -0.0737601 0.090000004)
(-0.033242598 -0.073242597 0.090000004)
(-0.033760101 -0.072652601 0.090000004)
(-0.032000002 -0.074196197 0.090000004)
(-0.032652602 0.0737601 0.090000004)
(-0.034196202 -0.071999997 0.090000004)
(-0.032000002 0.074196197 0.090000004)
(-0.0312961 0.074543297 0.090000004)
(-0.0312961 -0.074543297 0.090000004)
(-0.030552899 0.074795596 0.090000004)
(-0.034543298 -0.071296103 0.090000004)
(-0.0297832 0.074948698 0.090000004)
(-0.030552899 -0.074795596 0.090000004)
(-0.028999999 0.075000003 0.090000004)
(-0.034795601 -0.0705529 0.090000004)
(-0.0297832 -0.074948698 0.090000004)
(-0.034948699 -0.069783203 0.090000004)
(-0.028999999 -0.075000003 0.090000004)
(0.028999999 -0.075000003 0.090000004)
(0.0297832 -0.074948698 0.090000004)
(0.030552899 -0.074795596 0.090000004)
(0.0312961 -0.074543297 0.090000004)
(0.032000002 -0.074196197 0.090000004)
(0.032652602 -0.0737601 0.090000004)
(0.034948699 0.069783203 0.090000004)
(0.035 0.068999998 0.090000004)
(0.034795601 0.0705529 0.090000004)
(0.034543298 0.071296103 0.090000004)
(0.034196202 0.071999997 0.090000004)
(0.033760101 0.072652601 0.090000004)
(0.033242598 0.073242597 0.090000004)
(0.032652602 0.0737601 0.090000004)
(0.033242598 -0.073242597 0.090000004)
(0.032000002 0.074196197 0.090000004)
(0.0312961 0.074543297 0.090000004)
(0.030552899 0.074795596 0.090000004)
(0.0297832 0.074948698 0.090000004)
(0.028999999 0.075000003 0.090000004)
(0.033760101 -0.072652601 0.090000004)
(0.034196202 -0.071999997 0.090000004)
(0.035 -0.068999998 0.090000004)
(0.034543298 -0.071296103 0.090000004)
(0.034795601 -0.0705529 0.090000004)
(0.034948699 -0.069783203 0.090000004)
(-0.033760101 0.072652601 0)
(-0.034196202 0.071999997 0)
(-0.034543298 0.071296103 0)
(-0.034795601 0.0705529 0)
(-0.034948699 0.069783203 0)
(-0.035 0.068999998 0)
(-0.035 -0.068999998 0)
(-0.033242598 0.073242597 0)
(-0.033242598 -0.073242597 0)
(-0.032652602 -0.0737601 0)
(-0.033760101 -0.072652601 0)
(-0.032000002 -0.074196197 0)
(-0.032652602 0.0737601 0)
(-0.034196202 -0.071999997 0)
(-0.032000002 0.074196197 0)
(-0.0312961 0.074543297 0)
(-0.0312961 -0.074543297 0)
(-0.030552899 0.074795596 0)
(-0.034543298 -0.071296103 0)
(-0.0297832 0.074948698 0)
(-0.030552899 -0.074795596 0)
(-0.028999999 0.075000003 0)
(-0.034795601 -0.0705529 0)
(-0.0297832 -0.074948698 0)
(-0.034948699 -0.069783203 0)
(-0.028999999 -0.075000003 0)
(0.028999999 -0.075000003 0)
(0.0297832 -0.074948698 0)
(0.030552899 -0.074795596 0)
(0.0312961 -0.074543297 0)
(0.032000002 -0.074196197 0)
(0.032652602 -0.0737601 0)
(0.035 0.068999998 0)
(0.034948699 0.069783203 0)
(0.034795601 0.0705529 0)
(0.034543298 0.071296103 0)
(0.034196202 0.071999997 0)
(0.033760101 0.072652601 0)
(0.033242598 0.073242597 0)
(0.032652602 0.0737601 0)
(0.033242598 -0.073242597 0)
(0.032000002 0.074196197 0)
(0.0312961 0.074543297 0)
(0.030552899 0.074795596 0)
(0.0297832 0.074948698 0)
(0.028999999 0.075000003 0)
(0.033760101 -0.072652601 0)
(0.034196202 -0.071999997 0)
(0.035 -0.068999998 0)
(0.034543298 -0.071296103 0)
(0.034795601 -0.0705529 0)
(0.034948699 -0.069783203 0)
)


// edges:

116
(
(2 0)
(0 1)
(3 2)
(1 3)
(3 4)
(4 5)
(5 2)
(8 9)
(10 8)
(11 10)
(12 11)
(13 12)
(14 13)
(9 15)
(16 17)
(17 18)
(19 16)
(15 20)
(18 21)
(20 22)
(22 23)
(24 19)
(23 25)
(21 26)
(25 27)
(28 24)
(27 29)
(26 30)
(31 28)
(30 32)
(32 14)
(33 31)
(34 33)
(35 34)
(36 35)
(37 36)
(38 37)
(39 38)
(40 41)
(42 40)
(43 42)
(44 43)
(45 44)
(46 45)
(47 46)
(48 39)
(49 47)
(5 6)
(50 49)
(51 50)
(52 51)
(53 52)
(29 53)
(54 48)
(6 0)
(55 54)
(41 56)
(57 55)
(58 57)
(59 58)
(56 59)
(7 1)
(6 7)
(60 61)
(61 62)
(62 63)
(63 64)
(64 65)
(65 66)
(67 60)
(68 69)
(70 68)
(69 71)
(72 67)
(73 70)
(74 72)
(75 74)
(71 76)
(77 75)
(78 73)
(79 77)
(76 80)
(81 79)
(82 78)
(80 83)
(84 82)
(66 84)
(83 85)
(85 86)
(86 87)
(87 88)
(88 89)
(89 90)
(90 91)
(92 93)
(93 94)
(94 95)
(95 96)
(96 97)
(97 98)
(98 99)
(91 100)
(99 101)
(7 4)
(101 102)
(102 103)
(103 104)
(104 105)
(105 81)
(100 106)
(106 107)
(108 92)
(107 109)
(109 110)
(110 111)
(111 108)
)

// * * * * * * * * * * * * * * * * * * * * * * * * * * * * * * * * * * * * * //


// ************************************************************************* //
