/*--------------------------------*- C++ -*----------------------------------*\
| =========                 |                                                 |
| \\      /  F ield         | OpenFOAM: The Open Source CFD Toolbox           |
|  \\    /   O peration     | Version:  2.3.x                                 |
|   \\  /    A nd           | Web:      www.OpenFOAM.org                      |
|    \\/     M anipulation  |                                                 |
\*---------------------------------------------------------------------------*/
FoamFile
{
    version     2.0;
    format      ascii;
    class       featureEdgeMesh;
    location    "constant/triSurface";
    object      geometry_fluid_dynamic.eMesh;
}
// * * * * * * * * * * * * * * * * * * * * * * * * * * * * * * * * * * * * * //


// points:

104
(
(-0.035 -0.068999998 0)
(-0.034948699 -0.069783203 0)
(-0.034948699 -0.069783203 0.02)
(-0.035 -0.068999998 0.02)
(-0.034795601 -0.0705529 0.02)
(-0.034795601 -0.0705529 0)
(-0.034543298 -0.071296103 0.02)
(-0.034196202 -0.071999997 0.02)
(-0.034543298 -0.071296103 0)
(-0.033760101 -0.072652601 0.02)
(-0.034196202 -0.071999997 0)
(-0.033760101 -0.072652601 0)
(-0.033242598 -0.073242597 0.02)
(-0.033242598 -0.073242597 0)
(-0.032652602 -0.0737601 0.02)
(-0.032000002 -0.074196197 0.02)
(-0.032652602 -0.0737601 0)
(-0.0312961 -0.074543297 0.02)
(-0.032000002 -0.074196197 0)
(-0.030552899 -0.074795596 0.02)
(-0.0312961 -0.074543297 0)
(-0.030552899 -0.074795596 0)
(-0.0297832 -0.074948698 0.02)
(-0.0297832 -0.074948698 0)
(-0.028999999 -0.075000003 0.02)
(-0.028999999 -0.075000003 0)
(0.028999999 -0.075000003 0.02)
(0.028999999 -0.075000003 0)
(0.0297832 -0.074948698 0.02)
(0.0297832 -0.074948698 0)
(0.030552899 -0.074795596 0.02)
(0.030552899 -0.074795596 0)
(0.0312961 -0.074543297 0.02)
(0.032000002 -0.074196197 0.02)
(0.0312961 -0.074543297 0)
(0.032652602 -0.0737601 0.02)
(0.032000002 -0.074196197 0)
(0.033242598 -0.073242597 0.02)
(0.032652602 -0.0737601 0)
(0.033760101 -0.072652601 0.02)
(0.033242598 -0.073242597 0)
(0.034196202 -0.071999997 0.02)
(0.033760101 -0.072652601 0)
(0.034196202 -0.071999997 0)
(0.034543298 -0.071296103 0.02)
(0.034795601 -0.0705529 0.02)
(0.034543298 -0.071296103 0)
(0.034948699 -0.069783203 0.02)
(0.034795601 -0.0705529 0)
(0.034948699 -0.069783203 0)
(0.035 -0.068999998 0.02)
(0.035 -0.068999998 0)
(0.035 0.068999998 0.02)
(0.035 0.068999998 0)
(0.034948699 0.069783203 0.02)
(0.034948699 0.069783203 0)
(0.034795601 0.0705529 0.02)
(0.034543298 0.071296103 0.02)
(0.034795601 0.0705529 0)
(0.034543298 0.071296103 0)
(0.034196202 0.071999997 0.02)
(0.034196202 0.071999997 0)
(0.033760101 0.072652601 0.02)
(0.033760101 0.072652601 0)
(0.033242598 0.073242597 0.02)
(0.033242598 0.073242597 0)
(0.032652602 0.0737601 0.02)
(0.032652602 0.0737601 0)
(0.032000002 0.074196197 0.02)
(0.032000002 0.074196197 0)
(0.0312961 0.074543297 0.02)
(0.0312961 0.074543297 0)
(0.030552899 0.074795596 0.02)
(0.030552899 0.074795596 0)
(0.0297832 0.074948698 0.02)
(0.0297832 0.074948698 0)
(0.028999999 0.075000003 0.02)
(0.028999999 0.075000003 0)
(-0.028999999 0.075000003 0.02)
(-0.028999999 0.075000003 0)
(-0.0297832 0.074948698 0)
(-0.0297832 0.074948698 0.02)
(-0.030552899 0.074795596 0.02)
(-0.0312961 0.074543297 0.02)
(-0.030552899 0.074795596 0)
(-0.032000002 0.074196197 0.02)
(-0.0312961 0.074543297 0)
(-0.032652602 0.0737601 0.02)
(-0.032000002 0.074196197 0)
(-0.032652602 0.0737601 0)
(-0.033242598 0.073242597 0.02)
(-0.033242598 0.073242597 0)
(-0.033760101 0.072652601 0.02)
(-0.034196202 0.071999997 0.02)
(-0.033760101 0.072652601 0)
(-0.034196202 0.071999997 0)
(-0.034543298 0.071296103 0.02)
(-0.034543298 0.071296103 0)
(-0.034795601 0.0705529 0.02)
(-0.034948699 0.069783203 0.02)
(-0.034795601 0.0705529 0)
(-0.034948699 0.069783203 0)
(-0.035 0.068999998 0.02)
(-0.035 0.068999998 0)
)


// edges:

104
(
(0 1)
(2 3)
(4 2)
(1 5)
(6 4)
(7 6)
(5 8)
(9 7)
(8 10)
(10 11)
(12 9)
(11 13)
(14 12)
(15 14)
(13 16)
(17 15)
(16 18)
(19 17)
(18 20)
(20 21)
(22 19)
(21 23)
(24 22)
(23 25)
(26 24)
(25 27)
(28 26)
(27 29)
(30 28)
(29 31)
(32 30)
(33 32)
(31 34)
(35 33)
(34 36)
(37 35)
(36 38)
(39 37)
(38 40)
(41 39)
(40 42)
(42 43)
(44 41)
(45 44)
(43 46)
(47 45)
(46 48)
(48 49)
(50 47)
(49 51)
(52 50)
(51 53)
(54 52)
(53 55)
(56 54)
(57 56)
(55 58)
(58 59)
(60 57)
(59 61)
(62 60)
(61 63)
(64 62)
(63 65)
(66 64)
(65 67)
(68 66)
(67 69)
(70 68)
(69 71)
(72 70)
(71 73)
(74 72)
(73 75)
(76 74)
(75 77)
(78 76)
(77 79)
(79 80)
(81 78)
(82 81)
(83 82)
(80 84)
(85 83)
(84 86)
(87 85)
(86 88)
(88 89)
(90 87)
(89 91)
(92 90)
(93 92)
(91 94)
(94 95)
(96 93)
(95 97)
(98 96)
(99 98)
(97 100)
(100 101)
(102 99)
(101 103)
(103 0)
(3 102)
)

// * * * * * * * * * * * * * * * * * * * * * * * * * * * * * * * * * * * * * //


// ************************************************************************* //
