/*--------------------------------*- C++ -*----------------------------------*\
| =========                 |                                                 |
| \\      /  F ield         | foam-extend: Open Source CFD                    |
|  \\    /   O peration     | Version:     3.1                                |
|   \\  /    A nd           | Web:         http://www.extend-project.de       |
|    \\/     M anipulation  |                                                 |
\*---------------------------------------------------------------------------*/
FoamFile
{
    version     2.0;
    format      ascii;
    class       dictionary;
    object      createPatchDict;
}
// * * * * * * * * * * * * * * * * * * * * * * * * * * * * * * * * * * * * * //

matchTolerance           1e-6;

pointSync                true;

patchInfo
(
    {
        name             trackedSurface;
        constructFrom    set;
        set              faceSet_trackedSurface;

        dictionary
        {
            type         patch;
        }
    }

    {
        name             fixedWallSide;
        constructFrom    set;
        set              faceSet_fixedWallSide;

        dictionary
        {
            type         wall;
        }
    }

    {
        name             fixedWallBottom;
        constructFrom    set;
        set              faceSet_fixedWallBottom;

        dictionary
        {
            type         wall;
        }
    }
);

// ************************************************************************* //
