/*--------------------------------*- C++ -*----------------------------------*\
| =========                 |                                                 |
| \\      /  F ield         | foam-extend: Open Source CFD                    |
|  \\    /   O peration     | Version:     4.0                                |
|   \\  /    A nd           | Web:         http://www.foam-extend.org         |
|    \\/     M anipulation  | For copyright notice see file Copyright         |
\*---------------------------------------------------------------------------*/
FoamFile
{
    version     2.0;
    format      ascii;
    class       volScalarField;
    object      epsilon;
}
// * * * * * * * * * * * * * * * * * * * * * * * * * * * * * * * * * * * * * //

dimensions      [0 2 -3 0 0 0 0];

internalField   uniform 0;

boundaryField
{
    axis
    {
        type            slip;
    }
    front
    {
        type            wedge;
    }
    back
    {
        type            wedge;
    }
//     atmosphere
//     {
//         type            inletOutlet;
// //         inletValue      $internalField;
// //         value           $internalField;
// // TODO: Values?
//         inletValue      uniform 0.00024314788;
//         value           uniform 0.00024314788;
//     }
    atmosphere
    {
        type            slip;
    }
    sideWall
    {
        type            epsilonWallFunction;
        value           $internalField;
    }
    bottomWall
    {
        type            epsilonWallFunction;
        value           $internalField;
    }
    "procBoundary.*"
    {
        type            processor;
        value           $internalField;
    }
}

// ************************************************************************* //
