/*--------------------------------*- C++ -*----------------------------------*\
| =========                 |                                                 |
| \\      /  F ield         | foam-extend: Open Source CFD                    |
|  \\    /   O peration     | Version:     4.0                                |
|   \\  /    A nd           | Web:         http://www.foam-extend.org         |
|    \\/     M anipulation  | For copyright notice see file Copyright         |
\*---------------------------------------------------------------------------*/
FoamFile
{
    version     2.0;
    format      ascii;
    class       volVectorField;
    object      F;
}
// * * * * * * * * * * * * * * * * * * * * * * * * * * * * * * * * * * * * * //

dimensions      [1 -2 -2 0 0 0 0];

internalField   uniform (0 0 0);

boundaryField
{
    axis
    {
        type            slip;
    }
    front
    {
        type            wedge;
    }
    back
    {
        type            wedge;
    }
    atmosphere
    {
        type            calculated;
        value           $internalField;
    }
    sideWall
    {
        type            calculated;
        value           $internalField;
    }
    bottomWall
    {
        type            calculated;
        value           $internalField;
    }
    "procBoundary.*"
    {
        type            processor;
        value           $internalField;
    }
}

// ************************************************************************* //
