/*--------------------------------*- C++ -*----------------------------------*\
| =========                 |                                                 |
| \\      /  F ield         | foam-extend: Open Source CFD                    |
|  \\    /   O peration     | Version:     3.1                                |
|   \\  /    A nd           | Web:         http://www.extend-project.de       |
|    \\/     M anipulation  |                                                 |
\*---------------------------------------------------------------------------*/
FoamFile
{
    version     2.0;
    format      ascii;
    class       volScalarField;
    object      sigma;
}
// * * * * * * * * * * * * * * * * * * * * * * * * * * * * * * * * * * * * * //

dimensions      [-1 -3 3 0 0 2 0];

internalField   uniform 0;

boundaryField
{
    axis
    {
        type            calculated;
        value           $internalField;
    }
    trackedSurface
    {
        type            calculated;
        value           $internalField;
    }
    fixedWallBottom
    {
        type            calculated;
        value           $internalField;
    }
    fixedWallSide
    {
        type            calculated;
        value           $internalField;
    }
    front
    {
        type            wedge;
    }
    back
    {
        type            wedge;
    }
    "procBoundary.*"
    {
        type            processor;
        value           $internalField;
    }
}

// ************************************************************************* //
